<edges>
<edge id="0" from="0" to="1" />
<edge id="1" from="1" to="2" />
<edge id="2" from="2" to="3" />
<edge id="3" from="3" to="4" />
<edge id="4" from="4" to="5" />
<edge id="5" from="5" to="6" />
<edge id="6" from="6" to="7" />
<edge id="7" from="7" to="8" />
<edge id="8" from="8" to="9" />
<edge id="9" from="9" to="10" />
<edge id="10" from="10" to="11" />
<edge id="11" from="11" to="12" />
<edge id="12" from="12" to="13" />
<edge id="13" from="13" to="14" />
<edge id="14" from="14" to="15" />
<edge id="15" from="15" to="16" />
<edge id="16" from="16" to="17" />
<edge id="17" from="17" to="18" />
<edge id="18" from="18" to="19" />
<edge id="19" from="19" to="20" />
<edge id="20" from="20" to="21" />
<edge id="21" from="21" to="22" />
<edge id="22" from="22" to="23" />
<edge id="23" from="23" to="24" />
<edge id="24" from="24" to="25" />
<edge id="25" from="25" to="26" />
<edge id="26" from="26" to="27" />
<edge id="27" from="27" to="28" />
<edge id="28" from="28" to="29" />
<edge id="29" from="29" to="30" />
<edge id="30" from="30" to="31" />
</edges>
