<nodes>
<node id="0" x="0" y="0" />
<node id="1" x="71.65635622337341" y="1.0518972939598352" />
<node id="2" x="160.03289996471102" y="3.655603165998893" />
<node id="3" x="249.61169420642807" y="4.707500216371191" />
<node id="4" x="327.2459070848615" y="7.321620306726267" />
<node id="5" x="422.1903007822396" y="10.716851332425355" />
<node id="6" x="510.2774138472961" y="10.716851332425355" />
<node id="7" x="-4.185612853700268" y="-79.71527180065338" />
<node id="8" x="9.55121231094311" y="-77.36150965018888" />
<node id="9" x="164.21851281841126" y="-72.39361457971233" />
<node id="10" x="76.13139975335463" y="-76.30960720931573" />
<node id="11" x="180.9387003347935" y="-67.94646455117834" />
<node id="12" x="254.6878629858081" y="-67.94646455117834" />
<node id="13" x="329.6281441887836" y="-62.71820077788782" />
<node id="14" x="352.0256257355265" y="-61.41634253741008" />
<node id="15" x="431.4409504669013" y="-68.47762291961996" />
<node id="16" x="425.4742257618417" y="-56.448452476937554" />
<node id="17" x="514.7524573772774" y="-67.16534933588504" />
<node id="18" x="-7.770100458001772" y="-154.72339781666187" />
<node id="19" x="77.62308093001502" y="-153.15074392486244" />
<node id="20" x="168.99411897309187" y="-151.58850511411336" />
<node id="21" x="259.16290651578925" y="-150.0158515341031" />
<node id="22" x="335.6060008438436" y="-148.44319811050553" />
<node id="23" x="428.75815073986183" y="-145.30830665305086" />
<node id="24" x="518.336944981579" y="-142.17341581711278" />
<node id="25" x="-12.545706612682357" y="-233.12716230394653" />
<node id="26" x="81.20756853431655" y="-230.5130028930359" />
<node id="27" x="174.37085037875318" y="-229.47150524012397" />
<node id="28" x="263.9385126704698" y="-232.60641338301437" />
<node id="29" x="342.173850799884" y="-225.8054340471329" />
<node id="30" x="431.15151979220235" y="-224.24318805874867" />
<node id="31" x="522.5114258852788" y="-221.10828157382576" />
</nodes>
