<?xml version="1.0" encoding="UTF-8"?>

<!-- generated on 13/04/2016 05:24:11 p.m. by Netedit Version 0.25.0
<?xml version="1.0" encoding="UTF-8"?>

<configuration xmlns:xsi="http://www.w3.org/2001/XMLSchema-instance" xsi:noNamespaceSchemaLocation="http://sumo.dlr.de/xsd/netedit.exeConfiguration.xsd">

    <input>
        <sumo-net-file value="C:\Users\famezcua\git\roma\romaSimulations\data\romaBasic.net.xml"/>
    </input>

    <output>
        <output-file value="C:\Users\famezcua\git\roma\romaSimulations\data\romaBasic.net.xml"/>
    </output>

    <processing>
        <no-turnarounds value="true"/>
        <offset.disable-normalization value="true"/>
        <lefthand value="false"/>
        <junctions.corner-detail value="0"/>
    </processing>

</configuration>
-->

<net version="0.25" xmlns:xsi="http://www.w3.org/2001/XMLSchema-instance" xsi:noNamespaceSchemaLocation="http://sumo.dlr.de/xsd/net_file.xsd">

    <location netOffset="0.00,0.00" convBoundary="-282.80,-172.82,251.67,307.80" origBoundary="-10000000000.00,-10000000000.00,10000000000.00,10000000000.00" projParameter="!"/>

    <edge id=":N5_0" function="internal">
        <lane id=":N5_0_0" index="0" speed="13.89" length="5.00" shape="-29.40,65.09 -29.59,63.73 -30.17,62.76 -31.15,62.18 -32.50,61.99"/>
    </edge>
    <edge id=":N5_1" function="internal">
        <lane id=":N5_1_0" index="0" speed="13.89" length="16.12" shape="-26.10,65.09 -26.10,60.30 -26.10,57.03 -26.10,53.76 -26.10,48.97"/>
    </edge>
    <edge id=":N5_2" function="internal">
        <lane id=":N5_2_0" index="0" speed="13.89" length="6.42" shape="-26.10,65.09 -25.49,60.84 -24.40,59.01"/>
    </edge>
    <edge id=":N5_14" function="internal">
        <lane id=":N5_14_0" index="0" speed="13.89" length="9.24" shape="-24.40,59.01 -23.67,57.80 -20.64,55.98 -16.40,55.37"/>
    </edge>
    <edge id=":N5_3" function="internal">
        <lane id=":N5_3_0" index="0" speed="13.89" length="5.01" shape="-16.40,61.97 -17.75,62.17 -18.72,62.75 -19.30,63.72 -19.50,65.09"/>
    </edge>
    <edge id=":N5_4" function="internal">
        <lane id=":N5_4_0" index="0" speed="13.89" length="16.11" shape="-16.40,61.97 -21.18,61.97 -24.45,61.97 -27.72,61.98 -32.50,61.99"/>
        <lane id=":N5_4_1" index="1" speed="13.89" length="16.11" shape="-16.40,58.67 -21.18,58.67 -24.46,58.67 -27.73,58.68 -32.51,58.69"/>
    </edge>
    <edge id=":N5_6" function="internal">
        <lane id=":N5_6_0" index="0" speed="13.89" length="6.41" shape="-16.40,58.67 -20.64,58.07 -22.46,56.97"/>
    </edge>
    <edge id=":N5_15" function="internal">
        <lane id=":N5_15_0" index="0" speed="13.89" length="9.23" shape="-22.46,56.97 -23.67,56.25 -25.49,53.22 -26.10,48.97"/>
    </edge>
    <edge id=":N5_7" function="internal">
        <lane id=":N5_7_0" index="0" speed="13.89" length="5.00" shape="-19.50,48.97 -19.31,50.33 -18.72,51.30 -17.75,51.88 -16.39,52.07"/>
    </edge>
    <edge id=":N5_8" function="internal">
        <lane id=":N5_8_0" index="0" speed="13.89" length="16.12" shape="-22.80,48.97 -22.80,53.76 -22.80,57.03 -22.80,60.30 -22.80,65.09"/>
    </edge>
    <edge id=":N5_9" function="internal">
        <lane id=":N5_9_0" index="0" speed="13.89" length="6.41" shape="-22.80,48.97 -23.41,53.21 -24.50,55.04"/>
    </edge>
    <edge id=":N5_16" function="internal">
        <lane id=":N5_16_0" index="0" speed="13.89" length="9.25" shape="-24.50,55.04 -25.23,56.25 -28.26,58.08 -32.51,58.69"/>
    </edge>
    <edge id=":N5_10" function="internal">
        <lane id=":N5_10_0" index="0" speed="13.89" length="5.04" shape="-32.53,52.09 -31.16,51.90 -30.18,51.31 -29.60,50.34 -29.40,48.97"/>
    </edge>
    <edge id=":N5_11" function="internal">
        <lane id=":N5_11_0" index="0" speed="13.89" length="16.13" shape="-32.53,52.09 -27.74,52.08 -24.46,52.07 -21.19,52.07 -16.39,52.07"/>
        <lane id=":N5_11_1" index="1" speed="13.89" length="16.13" shape="-32.52,55.39 -27.74,55.38 -24.46,55.37 -21.18,55.37 -16.40,55.37"/>
    </edge>
    <edge id=":N5_13" function="internal">
        <lane id=":N5_13_0" index="0" speed="13.89" length="6.42" shape="-32.52,55.39 -28.27,55.99 -26.45,57.08"/>
    </edge>
    <edge id=":N5_17" function="internal">
        <lane id=":N5_17_0" index="0" speed="13.89" length="9.25" shape="-26.45,57.08 -25.23,57.80 -23.41,60.84 -22.80,65.09"/>
    </edge>

    <edge id="E1" from="N1" to="N5" priority="1">
        <lane id="E1_0" index="0" speed="13.89" length="242.71" shape="-29.35,307.80 -29.40,65.09"/>
        <lane id="E1_1" index="1" speed="13.89" length="242.71" shape="-26.05,307.80 -26.10,65.09"/>
    </edge>
    <edge id="E2" from="N5" to="N1" priority="1">
        <lane id="E2_0" index="0" speed="13.89" length="242.71" shape="-19.50,65.09 -19.45,307.80"/>
        <lane id="E2_1" index="1" speed="13.89" length="242.71" shape="-22.80,65.09 -22.75,307.80"/>
    </edge>
    <edge id="E3" from="N2" to="N5" priority="1">
        <lane id="E3_0" index="0" speed="13.89" length="268.07" shape="251.67,62.07 -16.40,61.97"/>
        <lane id="E3_1" index="1" speed="13.89" length="268.07" shape="251.67,58.77 -16.40,58.67"/>
    </edge>
    <edge id="E4" from="N5" to="N2" priority="1">
        <lane id="E4_0" index="0" speed="13.89" length="268.07" shape="-16.39,52.07 251.67,52.17"/>
        <lane id="E4_1" index="1" speed="13.89" length="268.07" shape="-16.40,55.37 251.67,55.47"/>
    </edge>
    <edge id="E5" from="N3" to="N5" priority="1">
        <lane id="E5_0" index="0" speed="13.89" length="221.79" shape="-19.52,-172.82 -19.50,48.97"/>
        <lane id="E5_1" index="1" speed="13.89" length="221.79" shape="-22.82,-172.82 -22.80,48.97"/>
    </edge>
    <edge id="E6" from="N5" to="N3" priority="1">
        <lane id="E6_0" index="0" speed="13.89" length="221.79" shape="-29.40,48.97 -29.42,-172.82"/>
        <lane id="E6_1" index="1" speed="13.89" length="221.79" shape="-26.10,48.97 -26.12,-172.82"/>
    </edge>
    <edge id="E7" from="N4" to="N5" priority="1">
        <lane id="E7_0" index="0" speed="13.89" length="250.29" shape="-282.82,52.86 -32.53,52.09"/>
        <lane id="E7_1" index="1" speed="13.89" length="250.29" shape="-282.81,56.16 -32.52,55.39"/>
    </edge>
    <edge id="E8" from="N5" to="N4" priority="1">
        <lane id="E8_0" index="0" speed="13.89" length="250.29" shape="-32.50,61.99 -282.79,62.76"/>
        <lane id="E8_1" index="1" speed="13.89" length="250.29" shape="-32.51,58.69 -282.80,59.46"/>
    </edge>

    <tlLogic id="N5" type="static" programID="0" offset="0">
        <phase duration="1" state="rrrGGGgrrrGGGg"/>
    </tlLogic>

    <junction id="N1" type="dead_end" x="-24.40" y="307.80" incLanes="E2_0 E2_1" intLanes="" shape="-24.45,307.80 -30.95,307.80 -17.85,307.80 -24.35,307.80"/>
    <junction id="N2" type="dead_end" x="251.67" y="57.12" incLanes="E4_0 E4_1" intLanes="" shape="251.67,57.17 251.67,63.67 251.67,50.57 251.67,57.07"/>
    <junction id="N3" type="dead_end" x="-24.47" y="-172.82" incLanes="E6_0 E6_1" intLanes="" shape="-24.42,-172.82 -17.92,-172.82 -31.02,-172.82 -24.52,-172.82"/>
    <junction id="N4" type="dead_end" x="-282.80" y="57.81" incLanes="E8_0 E8_1" intLanes="" shape="-282.80,57.76 -282.82,51.26 -282.78,64.36 -282.80,57.86"/>
    <junction id="N5" type="traffic_light" x="-24.45" y="57.02" incLanes="E1_0 E1_1 E3_0 E3_1 E5_0 E5_1 E7_0 E7_1" intLanes=":N5_0_0 :N5_1_0 :N5_14_0 :N5_3_0 :N5_4_0 :N5_4_1 :N5_15_0 :N5_7_0 :N5_8_0 :N5_16_0 :N5_10_0 :N5_11_0 :N5_11_1 :N5_17_0" shape="-31.00,65.09 -17.90,65.09 -16.40,63.57 -16.39,50.47 -17.90,48.97 -31.00,48.97 -32.54,50.49 -32.50,63.59">
        <request index="0" response="00000000000000" foes="00001000110000" cont="0"/>
        <request index="1" response="00000000000000" foes="11111001110000" cont="0"/>
        <request index="2" response="00000110000000" foes="11100111110000" cont="1"/>
        <request index="3" response="00000100000000" foes="10000100000000" cont="0"/>
        <request index="4" response="00001100000111" foes="10001100000111" cont="0"/>
        <request index="5" response="00001100000111" foes="10001100000111" cont="0"/>
        <request index="6" response="01111100000110" foes="01111100000110" cont="1"/>
        <request index="7" response="00000000000000" foes="01100000000100" cont="0"/>
        <request index="8" response="00000000000000" foes="11100001111100" cont="0"/>
        <request index="9" response="00000000000011" foes="11100001110011" cont="1"/>
        <request index="10" response="00000000000010" foes="00000001000010" cont="0"/>
        <request index="11" response="00001110000110" foes="00001111000110" cont="0"/>
        <request index="12" response="00001110000110" foes="00001111000110" cont="0"/>
        <request index="13" response="00001100111110" foes="00001100111110" cont="1"/>
    </junction>

    <junction id=":N5_14_0" type="internal" x="-24.40" y="59.01" incLanes=":N5_2_0 E5_0 E5_1" intLanes=":N5_4_0 :N5_4_1 :N5_6_0 :N5_7_0 :N5_8_0 :N5_11_0 :N5_11_1 :N5_13_0"/>
    <junction id=":N5_15_0" type="internal" x="-22.46" y="56.97" incLanes=":N5_6_0 E7_0 E7_1" intLanes=":N5_1_0 :N5_2_0 :N5_8_0 :N5_9_0 :N5_10_0 :N5_11_0 :N5_11_1"/>
    <junction id=":N5_16_0" type="internal" x="-24.50" y="55.04" incLanes=":N5_9_0 E1_0 E1_1" intLanes=":N5_0_0 :N5_1_0 :N5_4_0 :N5_4_1 :N5_6_0 :N5_11_0 :N5_11_1 :N5_13_0"/>
    <junction id=":N5_17_0" type="internal" x="-26.45" y="57.08" incLanes=":N5_13_0 E3_0 E3_1" intLanes=":N5_1_0 :N5_2_0 :N5_3_0 :N5_4_0 :N5_4_1 :N5_8_0 :N5_9_0"/>

    <connection from="E1" to="E8" fromLane="0" toLane="0" via=":N5_0_0" tl="N5" linkIndex="0" dir="r" state="o"/>
    <connection from="E1" to="E6" fromLane="1" toLane="1" via=":N5_1_0" tl="N5" linkIndex="1" dir="s" state="o"/>
    <connection from="E1" to="E4" fromLane="1" toLane="1" via=":N5_2_0" tl="N5" linkIndex="2" dir="l" state="o"/>
    <connection from="E3" to="E2" fromLane="0" toLane="0" via=":N5_3_0" tl="N5" linkIndex="3" dir="r" state="o"/>
    <connection from="E3" to="E8" fromLane="0" toLane="0" via=":N5_4_0" tl="N5" linkIndex="4" dir="s" state="o"/>
    <connection from="E3" to="E8" fromLane="1" toLane="1" via=":N5_4_1" tl="N5" linkIndex="5" dir="s" state="o"/>
    <connection from="E3" to="E6" fromLane="1" toLane="1" via=":N5_6_0" tl="N5" linkIndex="6" dir="l" state="o"/>
    <connection from="E5" to="E4" fromLane="0" toLane="0" via=":N5_7_0" tl="N5" linkIndex="7" dir="r" state="o"/>
    <connection from="E5" to="E2" fromLane="1" toLane="1" via=":N5_8_0" tl="N5" linkIndex="8" dir="s" state="o"/>
    <connection from="E5" to="E8" fromLane="1" toLane="1" via=":N5_9_0" tl="N5" linkIndex="9" dir="l" state="o"/>
    <connection from="E7" to="E6" fromLane="0" toLane="0" via=":N5_10_0" tl="N5" linkIndex="10" dir="r" state="o"/>
    <connection from="E7" to="E4" fromLane="0" toLane="0" via=":N5_11_0" tl="N5" linkIndex="11" dir="s" state="o"/>
    <connection from="E7" to="E4" fromLane="1" toLane="1" via=":N5_11_1" tl="N5" linkIndex="12" dir="s" state="o"/>
    <connection from="E7" to="E2" fromLane="1" toLane="1" via=":N5_13_0" tl="N5" linkIndex="13" dir="l" state="o"/>

    <connection from=":N5_0" to="E8" fromLane="0" toLane="0" dir="s" state="M"/>
    <connection from=":N5_1" to="E6" fromLane="0" toLane="1" dir="s" state="M"/>
    <connection from=":N5_2" to="E4" fromLane="0" toLane="1" via=":N5_14_0" dir="s" state="m"/>
    <connection from=":N5_14" to="E4" fromLane="0" toLane="1" dir="s" state="M"/>
    <connection from=":N5_3" to="E2" fromLane="0" toLane="0" dir="s" state="M"/>
    <connection from=":N5_4" to="E8" fromLane="0" toLane="0" dir="s" state="M"/>
    <connection from=":N5_4" to="E8" fromLane="1" toLane="1" dir="s" state="M"/>
    <connection from=":N5_6" to="E6" fromLane="0" toLane="1" via=":N5_15_0" dir="s" state="m"/>
    <connection from=":N5_15" to="E6" fromLane="0" toLane="1" dir="s" state="M"/>
    <connection from=":N5_7" to="E4" fromLane="0" toLane="0" dir="s" state="M"/>
    <connection from=":N5_8" to="E2" fromLane="0" toLane="1" dir="s" state="M"/>
    <connection from=":N5_9" to="E8" fromLane="0" toLane="1" via=":N5_16_0" dir="s" state="m"/>
    <connection from=":N5_16" to="E8" fromLane="0" toLane="1" dir="s" state="M"/>
    <connection from=":N5_10" to="E6" fromLane="0" toLane="0" dir="s" state="M"/>
    <connection from=":N5_11" to="E4" fromLane="0" toLane="0" dir="s" state="M"/>
    <connection from=":N5_11" to="E4" fromLane="1" toLane="1" dir="s" state="M"/>
    <connection from=":N5_13" to="E2" fromLane="0" toLane="1" via=":N5_17_0" dir="s" state="m"/>
    <connection from=":N5_17" to="E2" fromLane="0" toLane="1" dir="s" state="M"/>

</net>
