<?xml version="1.0" encoding="UTF-8"?>

<!-- generated on 14/04/2016 12:55:25 p.m. by Netedit Version 0.25.0
<?xml version="1.0" encoding="UTF-8"?>

<configuration xmlns:xsi="http://www.w3.org/2001/XMLSchema-instance" xsi:noNamespaceSchemaLocation="http://sumo.dlr.de/xsd/netedit.exeConfiguration.xsd">

    <input>
        <sumo-net-file value="C:\Users\famezcua\git\roma\romaSimulations\data\romaBasic.net.xml"/>
    </input>

    <output>
        <output-file value="C:\Users\famezcua\git\roma\romaSimulations\data\romaBasic.net.xml"/>
    </output>

    <processing>
        <no-turnarounds value="true"/>
        <offset.disable-normalization value="true"/>
        <lefthand value="false"/>
        <junctions.corner-detail value="0"/>
    </processing>

</configuration>
-->

<net version="0.25" xmlns:xsi="http://www.w3.org/2001/XMLSchema-instance" xsi:noNamespaceSchemaLocation="http://sumo.dlr.de/xsd/net_file.xsd">

    <location netOffset="0.00,0.00" convBoundary="-282.80,-172.82,251.67,307.80" origBoundary="-10000000000.00,-10000000000.00,10000000000.00,10000000000.00" projParameter="!"/>

    <edge id=":J5_0" function="internal">
        <lane id=":J5_0_0" index="0" speed="13.89" length="5.00" shape="-29.40,65.09 -29.59,63.73 -30.17,62.76 -31.15,62.18 -32.50,61.99"/>
    </edge>
    <edge id=":J5_1" function="internal">
        <lane id=":J5_1_0" index="0" speed="13.89" length="16.12" shape="-29.40,65.09 -29.40,60.31 -29.40,57.03 -29.40,53.76 -29.40,48.97"/>
        <lane id=":J5_1_1" index="1" speed="13.89" length="16.12" shape="-26.10,65.09 -26.10,60.30 -26.10,57.03 -26.10,53.76 -26.10,48.97"/>
    </edge>
    <edge id=":J5_3" function="internal">
        <lane id=":J5_3_0" index="0" speed="13.89" length="6.42" shape="-26.10,65.09 -25.49,60.84 -24.40,59.01"/>
    </edge>
    <edge id=":J5_16" function="internal">
        <lane id=":J5_16_0" index="0" speed="13.89" length="9.24" shape="-24.40,59.01 -23.67,57.80 -20.64,55.98 -16.40,55.37"/>
    </edge>
    <edge id=":J5_4" function="internal">
        <lane id=":J5_4_0" index="0" speed="13.89" length="5.01" shape="-16.40,61.97 -17.75,62.17 -18.72,62.75 -19.30,63.72 -19.50,65.09"/>
    </edge>
    <edge id=":J5_5" function="internal">
        <lane id=":J5_5_0" index="0" speed="13.89" length="16.11" shape="-16.40,61.97 -21.18,61.97 -24.45,61.97 -27.72,61.98 -32.50,61.99"/>
        <lane id=":J5_5_1" index="1" speed="13.89" length="16.11" shape="-16.40,58.67 -21.18,58.67 -24.46,58.67 -27.73,58.68 -32.51,58.69"/>
    </edge>
    <edge id=":J5_7" function="internal">
        <lane id=":J5_7_0" index="0" speed="13.89" length="6.41" shape="-16.40,58.67 -20.64,58.07 -22.46,56.97"/>
    </edge>
    <edge id=":J5_17" function="internal">
        <lane id=":J5_17_0" index="0" speed="13.89" length="9.23" shape="-22.46,56.97 -23.67,56.25 -25.49,53.22 -26.10,48.97"/>
    </edge>
    <edge id=":J5_8" function="internal">
        <lane id=":J5_8_0" index="0" speed="13.89" length="5.00" shape="-19.50,48.97 -19.31,50.33 -18.72,51.30 -17.75,51.88 -16.39,52.07"/>
    </edge>
    <edge id=":J5_9" function="internal">
        <lane id=":J5_9_0" index="0" speed="13.89" length="16.12" shape="-19.50,48.97 -19.50,53.76 -19.50,57.03 -19.50,60.30 -19.50,65.09"/>
        <lane id=":J5_9_1" index="1" speed="13.89" length="16.12" shape="-22.80,48.97 -22.80,53.76 -22.80,57.03 -22.80,60.30 -22.80,65.09"/>
    </edge>
    <edge id=":J5_11" function="internal">
        <lane id=":J5_11_0" index="0" speed="13.89" length="6.41" shape="-22.80,48.97 -23.41,53.21 -24.50,55.04"/>
    </edge>
    <edge id=":J5_18" function="internal">
        <lane id=":J5_18_0" index="0" speed="13.89" length="9.25" shape="-24.50,55.04 -25.23,56.25 -28.26,58.08 -32.51,58.69"/>
    </edge>
    <edge id=":J5_12" function="internal">
        <lane id=":J5_12_0" index="0" speed="13.89" length="5.04" shape="-32.53,52.09 -31.16,51.90 -30.18,51.31 -29.60,50.34 -29.40,48.97"/>
    </edge>
    <edge id=":J5_13" function="internal">
        <lane id=":J5_13_0" index="0" speed="13.89" length="16.13" shape="-32.53,52.09 -27.74,52.08 -24.46,52.07 -21.19,52.07 -16.39,52.07"/>
        <lane id=":J5_13_1" index="1" speed="13.89" length="16.13" shape="-32.52,55.39 -27.74,55.38 -24.46,55.37 -21.18,55.37 -16.40,55.37"/>
    </edge>
    <edge id=":J5_15" function="internal">
        <lane id=":J5_15_0" index="0" speed="13.89" length="6.42" shape="-32.52,55.39 -28.27,55.99 -26.45,57.08"/>
    </edge>
    <edge id=":J5_19" function="internal">
        <lane id=":J5_19_0" index="0" speed="13.89" length="9.25" shape="-26.45,57.08 -25.23,57.80 -23.41,60.84 -22.80,65.09"/>
    </edge>

    <edge id="E1" from="J1" to="J5" priority="1">
        <lane id="E1_0" index="0" speed="13.89" length="242.71" shape="-29.35,307.80 -29.40,65.09"/>
        <lane id="E1_1" index="1" speed="13.89" length="242.71" shape="-26.05,307.80 -26.10,65.09"/>
    </edge>
    <edge id="E2" from="J5" to="J1" priority="1">
        <lane id="E2_0" index="0" speed="13.89" length="242.71" shape="-19.50,65.09 -19.45,307.80"/>
        <lane id="E2_1" index="1" speed="13.89" length="242.71" shape="-22.80,65.09 -22.75,307.80"/>
    </edge>
    <edge id="E3" from="J2" to="J5" priority="1">
        <lane id="E3_0" index="0" speed="13.89" length="268.07" shape="251.67,62.07 -16.40,61.97"/>
        <lane id="E3_1" index="1" speed="13.89" length="268.07" shape="251.67,58.77 -16.40,58.67"/>
    </edge>
    <edge id="E4" from="J5" to="J2" priority="1">
        <lane id="E4_0" index="0" speed="13.89" length="268.07" shape="-16.39,52.07 251.67,52.17"/>
        <lane id="E4_1" index="1" speed="13.89" length="268.07" shape="-16.40,55.37 251.67,55.47"/>
    </edge>
    <edge id="E5" from="J3" to="J5" priority="1">
        <lane id="E5_0" index="0" speed="13.89" length="221.79" shape="-19.52,-172.82 -19.50,48.97"/>
        <lane id="E5_1" index="1" speed="13.89" length="221.79" shape="-22.82,-172.82 -22.80,48.97"/>
    </edge>
    <edge id="E6" from="J5" to="J3" priority="1">
        <lane id="E6_0" index="0" speed="13.89" length="221.79" shape="-29.40,48.97 -29.42,-172.82"/>
        <lane id="E6_1" index="1" speed="13.89" length="221.79" shape="-26.10,48.97 -26.12,-172.82"/>
    </edge>
    <edge id="E7" from="J4" to="J5" priority="1">
        <lane id="E7_0" index="0" speed="13.89" length="250.28" shape="-282.82,52.86 -32.53,52.09"/>
        <lane id="E7_1" index="1" speed="13.89" length="250.28" shape="-282.81,56.16 -32.52,55.39"/>
    </edge>
    <edge id="E8" from="J5" to="J4" priority="1">
        <lane id="E8_0" index="0" speed="13.89" length="250.28" shape="-32.50,61.99 -282.78,62.76"/>
        <lane id="E8_1" index="1" speed="13.89" length="250.28" shape="-32.51,58.69 -282.79,59.46"/>
    </edge>

    <tlLogic id="J5" type="static" programID="0" offset="0">
        <phase duration="31" state="GGGgrrrrGGGgrrrr"/>
        <phase duration="4" state="yyygrrrryyygrrrr"/>
        <phase duration="6" state="rrrGrrrrrrrGrrrr"/>
        <phase duration="4" state="rrryrrrrrrryrrrr"/>
        <phase duration="31" state="rrrrGGGgrrrrGGGg"/>
        <phase duration="4" state="rrrryyygrrrryyyg"/>
        <phase duration="6" state="rrrrrrrGrrrrrrrG"/>
        <phase duration="4" state="rrrrrrryrrrrrrry"/>
    </tlLogic>

    <junction id="J1" type="dead_end" x="-24.40" y="307.80" incLanes="E2_0 E2_1" intLanes="" shape="-24.45,307.80 -30.95,307.80 -17.85,307.80 -24.35,307.80"/>
    <junction id="J2" type="dead_end" x="251.67" y="57.12" incLanes="E4_0 E4_1" intLanes="" shape="251.67,57.17 251.67,63.67 251.67,50.57 251.67,57.07"/>
    <junction id="J3" type="dead_end" x="-24.47" y="-172.82" incLanes="E6_0 E6_1" intLanes="" shape="-24.42,-172.82 -17.92,-172.82 -31.02,-172.82 -24.52,-172.82"/>
    <junction id="J4" type="dead_end" x="-282.80" y="57.81" incLanes="E8_0 E8_1" intLanes="" shape="-282.80,57.76 -282.82,51.26 -282.78,64.36 -282.80,57.86"/>
    <junction id="J5" type="traffic_light" x="-24.45" y="57.02" incLanes="E1_0 E1_1 E3_0 E3_1 E5_0 E5_1 E7_0 E7_1" intLanes=":J5_0_0 :J5_1_0 :J5_1_1 :J5_16_0 :J5_4_0 :J5_5_0 :J5_5_1 :J5_17_0 :J5_8_0 :J5_9_0 :J5_9_1 :J5_18_0 :J5_12_0 :J5_13_0 :J5_13_1 :J5_19_0" shape="-31.00,65.09 -17.90,65.09 -16.40,63.57 -16.39,50.47 -17.90,48.97 -31.00,48.97 -32.54,50.49 -32.50,63.59">
        <request index="0" response="0000000000000000" foes="0000100001100000" cont="0"/>
        <request index="1" response="0000000000000000" foes="1111100011100000" cont="0"/>
        <request index="2" response="0000000000000000" foes="1111100011100000" cont="0"/>
        <request index="3" response="0000011100000000" foes="1110011111100000" cont="1"/>
        <request index="4" response="0000011000000000" foes="1000011000000000" cont="0"/>
        <request index="5" response="0000111000001111" foes="1000111000001111" cont="0"/>
        <request index="6" response="0000111000001111" foes="1000111000001111" cont="0"/>
        <request index="7" response="0111111000001110" foes="0111111000001110" cont="1"/>
        <request index="8" response="0000000000000000" foes="0110000000001000" cont="0"/>
        <request index="9" response="0000000000000000" foes="1110000011111000" cont="0"/>
        <request index="10" response="0000000000000000" foes="1110000011111000" cont="0"/>
        <request index="11" response="0000000000000111" foes="1110000011100111" cont="1"/>
        <request index="12" response="0000000000000110" foes="0000000010000110" cont="0"/>
        <request index="13" response="0000111100001110" foes="0000111110001110" cont="0"/>
        <request index="14" response="0000111100001110" foes="0000111110001110" cont="0"/>
        <request index="15" response="0000111001111110" foes="0000111001111110" cont="1"/>
    </junction>

    <junction id=":J5_16_0" type="internal" x="-24.40" y="59.01" incLanes=":J5_3_0 E5_0 E5_1" intLanes=":J5_5_0 :J5_5_1 :J5_7_0 :J5_8_0 :J5_9_0 :J5_9_1 :J5_13_0 :J5_13_1 :J5_15_0"/>
    <junction id=":J5_17_0" type="internal" x="-22.46" y="56.97" incLanes=":J5_7_0 E7_0 E7_1" intLanes=":J5_1_0 :J5_1_1 :J5_3_0 :J5_9_0 :J5_9_1 :J5_11_0 :J5_12_0 :J5_13_0 :J5_13_1"/>
    <junction id=":J5_18_0" type="internal" x="-24.50" y="55.04" incLanes=":J5_11_0 E1_0 E1_1" intLanes=":J5_0_0 :J5_1_0 :J5_1_1 :J5_5_0 :J5_5_1 :J5_7_0 :J5_13_0 :J5_13_1 :J5_15_0"/>
    <junction id=":J5_19_0" type="internal" x="-26.45" y="57.08" incLanes=":J5_15_0 E3_0 E3_1" intLanes=":J5_1_0 :J5_1_1 :J5_3_0 :J5_4_0 :J5_5_0 :J5_5_1 :J5_9_0 :J5_9_1 :J5_11_0"/>

    <connection from="E1" to="E8" fromLane="0" toLane="0" via=":J5_0_0" tl="J5" linkIndex="0" dir="r" state="o"/>
    <connection from="E1" to="E6" fromLane="0" toLane="0" via=":J5_1_0" tl="J5" linkIndex="1" dir="s" state="o"/>
    <connection from="E1" to="E6" fromLane="1" toLane="1" via=":J5_1_1" tl="J5" linkIndex="2" dir="s" state="o"/>
    <connection from="E1" to="E4" fromLane="1" toLane="1" via=":J5_3_0" tl="J5" linkIndex="3" dir="l" state="o"/>
    <connection from="E3" to="E2" fromLane="0" toLane="0" via=":J5_4_0" tl="J5" linkIndex="4" dir="r" state="o"/>
    <connection from="E3" to="E8" fromLane="0" toLane="0" via=":J5_5_0" tl="J5" linkIndex="5" dir="s" state="o"/>
    <connection from="E3" to="E8" fromLane="1" toLane="1" via=":J5_5_1" tl="J5" linkIndex="6" dir="s" state="o"/>
    <connection from="E3" to="E6" fromLane="1" toLane="1" via=":J5_7_0" tl="J5" linkIndex="7" dir="l" state="o"/>
    <connection from="E5" to="E4" fromLane="0" toLane="0" via=":J5_8_0" tl="J5" linkIndex="8" dir="r" state="o"/>
    <connection from="E5" to="E2" fromLane="0" toLane="0" via=":J5_9_0" tl="J5" linkIndex="9" dir="s" state="o"/>
    <connection from="E5" to="E2" fromLane="1" toLane="1" via=":J5_9_1" tl="J5" linkIndex="10" dir="s" state="o"/>
    <connection from="E5" to="E8" fromLane="1" toLane="1" via=":J5_11_0" tl="J5" linkIndex="11" dir="l" state="o"/>
    <connection from="E7" to="E6" fromLane="0" toLane="0" via=":J5_12_0" tl="J5" linkIndex="12" dir="r" state="o"/>
    <connection from="E7" to="E4" fromLane="0" toLane="0" via=":J5_13_0" tl="J5" linkIndex="13" dir="s" state="o"/>
    <connection from="E7" to="E4" fromLane="1" toLane="1" via=":J5_13_1" tl="J5" linkIndex="14" dir="s" state="o"/>
    <connection from="E7" to="E2" fromLane="1" toLane="1" via=":J5_15_0" tl="J5" linkIndex="15" dir="l" state="o"/>

    <connection from=":J5_0" to="E8" fromLane="0" toLane="0" dir="s" state="M"/>
    <connection from=":J5_1" to="E6" fromLane="0" toLane="0" dir="s" state="M"/>
    <connection from=":J5_1" to="E6" fromLane="1" toLane="1" dir="s" state="M"/>
    <connection from=":J5_3" to="E4" fromLane="0" toLane="1" via=":J5_16_0" dir="s" state="m"/>
    <connection from=":J5_16" to="E4" fromLane="0" toLane="1" dir="s" state="M"/>
    <connection from=":J5_4" to="E2" fromLane="0" toLane="0" dir="s" state="M"/>
    <connection from=":J5_5" to="E8" fromLane="0" toLane="0" dir="s" state="M"/>
    <connection from=":J5_5" to="E8" fromLane="1" toLane="1" dir="s" state="M"/>
    <connection from=":J5_7" to="E6" fromLane="0" toLane="1" via=":J5_17_0" dir="s" state="m"/>
    <connection from=":J5_17" to="E6" fromLane="0" toLane="1" dir="s" state="M"/>
    <connection from=":J5_8" to="E4" fromLane="0" toLane="0" dir="s" state="M"/>
    <connection from=":J5_9" to="E2" fromLane="0" toLane="0" dir="s" state="M"/>
    <connection from=":J5_9" to="E2" fromLane="1" toLane="1" dir="s" state="M"/>
    <connection from=":J5_11" to="E8" fromLane="0" toLane="1" via=":J5_18_0" dir="s" state="m"/>
    <connection from=":J5_18" to="E8" fromLane="0" toLane="1" dir="s" state="M"/>
    <connection from=":J5_12" to="E6" fromLane="0" toLane="0" dir="s" state="M"/>
    <connection from=":J5_13" to="E4" fromLane="0" toLane="0" dir="s" state="M"/>
    <connection from=":J5_13" to="E4" fromLane="1" toLane="1" dir="s" state="M"/>
    <connection from=":J5_15" to="E2" fromLane="0" toLane="1" via=":J5_19_0" dir="s" state="m"/>
    <connection from=":J5_19" to="E2" fromLane="0" toLane="1" dir="s" state="M"/>

</net>
