<?xml version="1.0" encoding="UTF-8"?>

<!-- generated on 3/25/2016 5:45:06 PM by Netedit Version 0.25.0
<?xml version="1.0" encoding="UTF-8"?>

<configuration xmlns:xsi="http://www.w3.org/2001/XMLSchema-instance" xsi:noNamespaceSchemaLocation="http://sumo.dlr.de/xsd/netedit.exeConfiguration.xsd">

    <output>
        <output-file value="C:\Users\Francisco\OneDrive\Master%20ITESO\Materias\IDI\sumo-0.25.0\docs\ROMA\data\romaBasic.net.xml"/>
    </output>

    <processing>
        <no-turnarounds value="true"/>
        <offset.disable-normalization value="true"/>
    </processing>

</configuration>
-->

<net version="0.25" xmlns:xsi="http://www.w3.org/2001/XMLSchema-instance" xsi:noNamespaceSchemaLocation="http://sumo.dlr.de/xsd/net_file.xsd">

    <location netOffset="0.00,0.00" convBoundary="-78.06,15.81,27.84,94.98" origBoundary="10000000000.00,10000000000.00,-10000000000.00,-10000000000.00" projParameter="!"/>

    <edge id=":N5_0" function="internal">
        <lane id=":N5_0_0" index="0" speed="13.89" length="5.01" shape="-29.40,65.08 -29.59,63.72 -30.17,62.75 -31.14,62.16 -32.50,61.97"/>
    </edge>
    <edge id=":N5_1" function="internal">
        <lane id=":N5_1_0" index="0" speed="13.89" length="16.13" shape="-26.10,65.08 -26.10,60.30 -26.09,57.02 -26.08,53.74 -26.07,48.96"/>
    </edge>
    <edge id=":N5_2" function="internal">
        <lane id=":N5_2_0" index="0" speed="13.89" length="6.42" shape="-26.10,65.08 -25.49,60.83 -24.39,59.01"/>
    </edge>
    <edge id=":N5_14" function="internal">
        <lane id=":N5_14_0" index="0" speed="13.89" length="9.25" shape="-24.39,59.01 -23.67,57.80 -20.63,55.98 -16.37,55.39"/>
    </edge>
    <edge id=":N5_3" function="internal">
        <lane id=":N5_3_0" index="0" speed="13.89" length="5.00" shape="-16.39,61.99 -17.75,62.18 -18.72,62.76 -19.30,63.73 -19.50,65.08"/>
    </edge>
    <edge id=":N5_4" function="internal">
        <lane id=":N5_4_0" index="0" speed="13.89" length="16.11" shape="-16.39,61.99 -21.17,61.98 -24.44,61.97 -27.72,61.97 -32.50,61.97"/>
        <lane id=":N5_4_1" index="1" speed="13.89" length="16.11" shape="-16.38,58.69 -21.17,58.68 -24.44,58.67 -27.71,58.67 -32.50,58.67"/>
    </edge>
    <edge id=":N5_6" function="internal">
        <lane id=":N5_6_0" index="0" speed="13.89" length="6.42" shape="-16.38,58.69 -20.63,58.07 -22.45,56.97"/>
    </edge>
    <edge id=":N5_15" function="internal">
        <lane id=":N5_15_0" index="0" speed="13.89" length="9.24" shape="-22.45,56.97 -23.66,56.24 -25.47,53.20 -26.07,48.96"/>
    </edge>
    <edge id=":N5_7" function="internal">
        <lane id=":N5_7_0" index="0" speed="13.89" length="5.01" shape="-19.47,48.98 -19.28,50.34 -18.70,51.31 -17.73,51.89 -16.36,52.09"/>
    </edge>
    <edge id=":N5_8" function="internal">
        <lane id=":N5_8_0" index="0" speed="13.89" length="16.12" shape="-22.77,48.97 -22.78,53.75 -22.79,57.03 -22.80,60.30 -22.80,65.08"/>
    </edge>
    <edge id=":N5_9" function="internal">
        <lane id=":N5_9_0" index="0" speed="13.89" length="6.42" shape="-22.77,48.97 -23.39,53.21 -24.49,55.03"/>
    </edge>
    <edge id=":N5_16" function="internal">
        <lane id=":N5_16_0" index="0" speed="13.89" length="9.24" shape="-24.49,55.03 -25.22,56.24 -28.25,58.06 -32.50,58.67"/>
    </edge>
    <edge id=":N5_10" function="internal">
        <lane id=":N5_10_0" index="0" speed="13.89" length="5.04" shape="-32.50,52.07 -31.13,51.87 -30.16,51.29 -29.57,50.31 -29.37,48.94"/>
    </edge>
    <edge id=":N5_11" function="internal">
        <lane id=":N5_11_0" index="0" speed="13.89" length="16.13" shape="-32.50,52.07 -27.71,52.07 -24.43,52.07 -21.15,52.08 -16.36,52.09"/>
        <lane id=":N5_11_1" index="1" speed="13.89" length="16.13" shape="-32.50,55.37 -27.71,55.37 -24.43,55.37 -21.16,55.38 -16.37,55.39"/>
    </edge>
    <edge id=":N5_13" function="internal">
        <lane id=":N5_13_0" index="0" speed="13.89" length="6.41" shape="-32.50,55.37 -28.25,55.97 -26.43,57.07"/>
    </edge>
    <edge id=":N5_17" function="internal">
        <lane id=":N5_17_0" index="0" speed="13.89" length="9.25" shape="-26.43,57.07 -25.22,57.80 -23.40,60.83 -22.80,65.08"/>
    </edge>

    <edge id="E1" from="N1" to="N5" priority="1">
        <lane id="E1_0" index="0" speed="13.89" length="29.89" shape="-29.40,94.98 -29.40,65.08"/>
        <lane id="E1_1" index="1" speed="13.89" length="29.89" shape="-26.10,94.98 -26.10,65.08"/>
    </edge>
    <edge id="E2" from="N5" to="N1" priority="1">
        <lane id="E2_0" index="0" speed="13.89" length="29.89" shape="-19.50,65.08 -19.50,94.98"/>
        <lane id="E2_1" index="1" speed="13.89" length="29.89" shape="-22.80,65.08 -22.80,94.98"/>
    </edge>
    <edge id="E3" from="N2" to="N5" priority="1">
        <lane id="E3_0" index="0" speed="13.89" length="44.22" shape="27.83,62.11 -16.39,61.99"/>
        <lane id="E3_1" index="1" speed="13.89" length="44.22" shape="27.84,58.81 -16.38,58.69"/>
    </edge>
    <edge id="E4" from="N5" to="N2" priority="1">
        <lane id="E4_0" index="0" speed="13.89" length="44.22" shape="-16.36,52.09 27.86,52.21"/>
        <lane id="E4_1" index="1" speed="13.89" length="44.22" shape="-16.37,55.39 27.85,55.51"/>
    </edge>
    <edge id="E5" from="N3" to="N5" priority="1">
        <lane id="E5_0" index="0" speed="13.89" length="33.16" shape="-19.35,15.82 -19.47,48.98"/>
        <lane id="E5_1" index="1" speed="13.89" length="33.16" shape="-22.65,15.81 -22.77,48.97"/>
    </edge>
    <edge id="E6" from="N5" to="N3" priority="1">
        <lane id="E6_0" index="0" speed="13.89" length="33.16" shape="-29.37,48.94 -29.25,15.79"/>
        <lane id="E6_1" index="1" speed="13.89" length="33.16" shape="-26.07,48.96 -25.95,15.80"/>
    </edge>
    <edge id="E7" from="N4" to="N5" priority="1">
        <lane id="E7_0" index="0" speed="13.89" length="45.57" shape="-78.06,52.07 -32.50,52.07"/>
        <lane id="E7_1" index="1" speed="13.89" length="45.57" shape="-78.06,55.37 -32.50,55.37"/>
    </edge>
    <edge id="E8" from="N5" to="N4" priority="1">
        <lane id="E8_0" index="0" speed="13.89" length="45.57" shape="-32.50,61.97 -78.06,61.97"/>
        <lane id="E8_1" index="1" speed="13.89" length="45.57" shape="-32.50,58.67 -78.06,58.67"/>
    </edge>

    <tlLogic id="N5" type="static" programID="0" offset="0">
        <phase duration="31" state="rrrGGGgrrrGGGg"/>
        <phase duration="4" state="rrryyygrrryyyg"/>
        <phase duration="6" state="rrrrrrGrrrrrrG"/>
        <phase duration="4" state="rrrrrryrrrrrry"/>
        <phase duration="31" state="GGgrrrrGGgrrrr"/>
        <phase duration="4" state="yygrrrryygrrrr"/>
        <phase duration="6" state="rrGrrrrrrGrrrr"/>
        <phase duration="4" state="rryrrrrrryrrrr"/>
    </tlLogic>

    <junction id="N1" type="dead_end" x="-24.45" y="94.98" incLanes="E2_0 E2_1" intLanes="" shape="-24.50,94.98 -31.00,94.98 -17.90,94.98 -24.40,94.98"/>
    <junction id="N2" type="dead_end" x="27.84" y="57.16" incLanes="E4_0 E4_1" intLanes="" shape="27.84,57.21 27.82,63.71 27.86,50.61 27.84,57.11"/>
    <junction id="N3" type="dead_end" x="-24.30" y="15.81" incLanes="E6_0 E6_1" intLanes="" shape="-24.25,15.81 -17.75,15.83 -30.85,15.78 -24.35,15.80"/>
    <junction id="N4" type="dead_end" x="-78.06" y="57.02" incLanes="E8_0 E8_1" intLanes="" shape="-78.06,56.97 -78.06,50.47 -78.06,63.57 -78.06,57.07"/>
    <junction id="N5" type="traffic_light" x="-24.45" y="57.02" incLanes="E1_0 E1_1 E3_0 E3_1 E5_0 E5_1 E7_0 E7_1" intLanes=":N5_0_0 :N5_1_0 :N5_14_0 :N5_3_0 :N5_4_0 :N5_4_1 :N5_15_0 :N5_7_0 :N5_8_0 :N5_16_0 :N5_10_0 :N5_11_0 :N5_11_1 :N5_17_0" shape="-31.00,65.08 -17.90,65.08 -16.40,63.59 -16.36,50.49 -17.87,48.98 -30.97,48.94 -32.50,50.47 -32.50,63.57">
        <request index="0" response="00000000110000" foes="00001000110000" cont="0"/>
        <request index="1" response="11110001110000" foes="11111001110000" cont="0"/>
        <request index="2" response="11100111110000" foes="11100111110000" cont="1"/>
        <request index="3" response="00000000000000" foes="10000100000000" cont="0"/>
        <request index="4" response="00000000000000" foes="10001100000111" cont="0"/>
        <request index="5" response="00000000000000" foes="10001100000111" cont="0"/>
        <request index="6" response="01110000000000" foes="01111100000110" cont="1"/>
        <request index="7" response="01100000000000" foes="01100000000100" cont="0"/>
        <request index="8" response="11100001111000" foes="11100001111100" cont="0"/>
        <request index="9" response="11100001110011" foes="11100001110011" cont="1"/>
        <request index="10" response="00000000000000" foes="00000001000010" cont="0"/>
        <request index="11" response="00000000000000" foes="00001111000110" cont="0"/>
        <request index="12" response="00000000000000" foes="00001111000110" cont="0"/>
        <request index="13" response="00000000111000" foes="00001100111110" cont="1"/>
    </junction>

    <junction id=":N5_14_0" type="internal" x="-24.39" y="59.01" incLanes=":N5_2_0 E5_0 E5_1" intLanes=":N5_4_0 :N5_4_1 :N5_6_0 :N5_7_0 :N5_8_0 :N5_11_0 :N5_11_1 :N5_13_0"/>
    <junction id=":N5_15_0" type="internal" x="-22.45" y="56.97" incLanes=":N5_6_0 E7_0 E7_1" intLanes=":N5_1_0 :N5_2_0 :N5_8_0 :N5_9_0 :N5_10_0 :N5_11_0 :N5_11_1"/>
    <junction id=":N5_16_0" type="internal" x="-24.49" y="55.03" incLanes=":N5_9_0 E1_0 E1_1" intLanes=":N5_0_0 :N5_1_0 :N5_4_0 :N5_4_1 :N5_6_0 :N5_11_0 :N5_11_1 :N5_13_0"/>
    <junction id=":N5_17_0" type="internal" x="-26.43" y="57.07" incLanes=":N5_13_0 E3_0 E3_1" intLanes=":N5_1_0 :N5_2_0 :N5_3_0 :N5_4_0 :N5_4_1 :N5_8_0 :N5_9_0"/>

    <connection from="E1" to="E8" fromLane="0" toLane="0" via=":N5_0_0" tl="N5" linkIndex="0" dir="r" state="o"/>
    <connection from="E1" to="E6" fromLane="1" toLane="1" via=":N5_1_0" tl="N5" linkIndex="1" dir="s" state="o"/>
    <connection from="E1" to="E4" fromLane="1" toLane="1" via=":N5_2_0" tl="N5" linkIndex="2" dir="l" state="o"/>
    <connection from="E3" to="E2" fromLane="0" toLane="0" via=":N5_3_0" tl="N5" linkIndex="3" dir="r" state="o"/>
    <connection from="E3" to="E8" fromLane="0" toLane="0" via=":N5_4_0" tl="N5" linkIndex="4" dir="s" state="o"/>
    <connection from="E3" to="E8" fromLane="1" toLane="1" via=":N5_4_1" tl="N5" linkIndex="5" dir="s" state="o"/>
    <connection from="E3" to="E6" fromLane="1" toLane="1" via=":N5_6_0" tl="N5" linkIndex="6" dir="l" state="o"/>
    <connection from="E5" to="E4" fromLane="0" toLane="0" via=":N5_7_0" tl="N5" linkIndex="7" dir="r" state="o"/>
    <connection from="E5" to="E2" fromLane="1" toLane="1" via=":N5_8_0" tl="N5" linkIndex="8" dir="s" state="o"/>
    <connection from="E5" to="E8" fromLane="1" toLane="1" via=":N5_9_0" tl="N5" linkIndex="9" dir="l" state="o"/>
    <connection from="E7" to="E6" fromLane="0" toLane="0" via=":N5_10_0" tl="N5" linkIndex="10" dir="r" state="o"/>
    <connection from="E7" to="E4" fromLane="0" toLane="0" via=":N5_11_0" tl="N5" linkIndex="11" dir="s" state="o"/>
    <connection from="E7" to="E4" fromLane="1" toLane="1" via=":N5_11_1" tl="N5" linkIndex="12" dir="s" state="o"/>
    <connection from="E7" to="E2" fromLane="1" toLane="1" via=":N5_13_0" tl="N5" linkIndex="13" dir="l" state="o"/>

    <connection from=":N5_0" to="E8" fromLane="0" toLane="0" dir="s" state="M"/>
    <connection from=":N5_1" to="E6" fromLane="0" toLane="1" dir="s" state="M"/>
    <connection from=":N5_2" to="E4" fromLane="0" toLane="1" via=":N5_14_0" dir="s" state="m"/>
    <connection from=":N5_14" to="E4" fromLane="0" toLane="1" dir="s" state="M"/>
    <connection from=":N5_3" to="E2" fromLane="0" toLane="0" dir="s" state="M"/>
    <connection from=":N5_4" to="E8" fromLane="0" toLane="0" dir="s" state="M"/>
    <connection from=":N5_4" to="E8" fromLane="1" toLane="1" dir="s" state="M"/>
    <connection from=":N5_6" to="E6" fromLane="0" toLane="1" via=":N5_15_0" dir="s" state="m"/>
    <connection from=":N5_15" to="E6" fromLane="0" toLane="1" dir="s" state="M"/>
    <connection from=":N5_7" to="E4" fromLane="0" toLane="0" dir="s" state="M"/>
    <connection from=":N5_8" to="E2" fromLane="0" toLane="1" dir="s" state="M"/>
    <connection from=":N5_9" to="E8" fromLane="0" toLane="1" via=":N5_16_0" dir="s" state="m"/>
    <connection from=":N5_16" to="E8" fromLane="0" toLane="1" dir="s" state="M"/>
    <connection from=":N5_10" to="E6" fromLane="0" toLane="0" dir="s" state="M"/>
    <connection from=":N5_11" to="E4" fromLane="0" toLane="0" dir="s" state="M"/>
    <connection from=":N5_11" to="E4" fromLane="1" toLane="1" dir="s" state="M"/>
    <connection from=":N5_13" to="E2" fromLane="0" toLane="1" via=":N5_17_0" dir="s" state="m"/>
    <connection from=":N5_17" to="E2" fromLane="0" toLane="1" dir="s" state="M"/>

</net>
