<routes>
	<!--
    <vType accel="1.0" decel="5.0" id="Car" length="2.0" maxSpeed="100.0" sigma="0.0" />
    <route id="route0" edges="E1 E4"/>
    <vehicle depart="1" id="veh0" route="route0" type="Car" />
	-->
	
	<vType accel="2.6" decel="4.5" id="CarA" length="6.0" minGap="2.5" maxSpeed="40.0" sigma="0.5" />
	<vType accel="2.6" decel="4.5" id="CarB" length="5.5" minGap="2.5" maxSpeed="40.0" sigma="0.5" />
	<vType accel="2.6" decel="4.5" id="CarC" length="5.0" minGap="2.5" maxSpeed="40.0" sigma="0.5" />
	<vType accel="2.6" decel="4.5" id="CarD" length="4.5" minGap="2.5" maxSpeed="40.0" sigma="0.5" />
	
	<route id="rou1" edges="E1 E6"/>
	<route id="rou2" edges="E1 E4"/>
	<route id="rou3" edges="E3 E8"/>
	<route id="rou4" edges="E3 E6"/>
	<route id="rou5" edges="E5 E2"/>
	<route id="rou6" edges="E5 E8"/>
	<route id="rou7" edges="E7 E4"/>
	<route id="rou8" edges="E7 E2"/>
	<route id="rou9" edges="E1 E8"/>
	<route id="rou10" edges="E3 E2"/>
	<route id="rou11" edges="E5 E4"/>
	<route id="rou12" edges="E7 E6"/>
	
<vehicle id="v1" depart="0" route="rou1" type="CarC"/>
<vehicle id="v2" depart="0" route="rou1" type="CarC"/>
<vehicle id="v3" depart="0" route="rou1" type="CarC"/>
<vehicle id="v4" depart="0" route="rou1" type="CarC"/>
<vehicle id="v5" depart="0" route="rou1" type="CarC"/>
<vehicle id="v6" depart="0" route="rou1" type="CarC"/>
<vehicle id="v7" depart="0" route="rou1" type="CarC"/>
<vehicle id="v8" depart="0" route="rou1" type="CarC"/>
<vehicle id="v9" depart="0" route="rou1" type="CarC"/>
<vehicle id="v10" depart="0" route="rou1" type="CarC"/>
<vehicle id="v11" depart="0" route="rou1" type="CarC"/>
<vehicle id="v12" depart="0" route="rou1" type="CarC"/>
<vehicle id="v13" depart="0" route="rou1" type="CarC"/>
<vehicle id="v14" depart="0" route="rou1" type="CarC"/>
<vehicle id="v15" depart="0" route="rou1" type="CarC"/>
<vehicle id="v16" depart="0" route="rou1" type="CarC"/>
<vehicle id="v17" depart="0" route="rou1" type="CarC"/>
<vehicle id="v18" depart="0" route="rou1" type="CarC"/>
<vehicle id="v19" depart="0" route="rou1" type="CarC"/>
<vehicle id="v20" depart="0" route="rou1" type="CarC"/>
<vehicle id="v21" depart="0" route="rou1" type="CarC"/>
<vehicle id="v22" depart="0" route="rou1" type="CarC"/>
<vehicle id="v23" depart="0" route="rou1" type="CarC"/>
<vehicle id="v24" depart="0" route="rou1" type="CarC"/>
<vehicle id="v25" depart="0" route="rou3" type="CarC"/>
<vehicle id="v26" depart="0" route="rou3" type="CarC"/>
<vehicle id="v27" depart="0" route="rou3" type="CarC"/>
<vehicle id="v28" depart="0" route="rou3" type="CarC"/>
<vehicle id="v29" depart="0" route="rou3" type="CarC"/>
<vehicle id="v30" depart="0" route="rou3" type="CarC"/>
<vehicle id="v31" depart="0" route="rou3" type="CarC"/>
<vehicle id="v32" depart="0" route="rou3" type="CarC"/>
<vehicle id="v33" depart="0" route="rou3" type="CarC"/>
<vehicle id="v34" depart="0" route="rou3" type="CarC"/>
<vehicle id="v35" depart="0" route="rou3" type="CarC"/>
<vehicle id="v36" depart="0" route="rou3" type="CarC"/>
<vehicle id="v37" depart="0" route="rou3" type="CarC"/>
<vehicle id="v38" depart="0" route="rou3" type="CarC"/>
<vehicle id="v39" depart="0" route="rou3" type="CarC"/>
<vehicle id="v40" depart="0" route="rou3" type="CarC"/>
<vehicle id="v41" depart="0" route="rou3" type="CarC"/>
<vehicle id="v42" depart="0" route="rou3" type="CarC"/>
<vehicle id="v43" depart="0" route="rou3" type="CarC"/>
<vehicle id="v44" depart="0" route="rou3" type="CarC"/>
<vehicle id="v45" depart="0" route="rou3" type="CarC"/>
<vehicle id="v46" depart="0" route="rou3" type="CarC"/>
<vehicle id="v47" depart="0" route="rou3" type="CarC"/>
<vehicle id="v48" depart="0" route="rou3" type="CarC"/>
<vehicle id="v49" depart="0" route="rou5" type="CarC"/>
<vehicle id="v50" depart="0" route="rou5" type="CarC"/>
<vehicle id="v51" depart="0" route="rou5" type="CarC"/>
<vehicle id="v52" depart="0" route="rou5" type="CarC"/>
<vehicle id="v53" depart="0" route="rou5" type="CarC"/>
<vehicle id="v54" depart="0" route="rou5" type="CarC"/>
<vehicle id="v55" depart="0" route="rou5" type="CarC"/>
<vehicle id="v56" depart="0" route="rou5" type="CarC"/>
<vehicle id="v57" depart="0" route="rou5" type="CarC"/>
<vehicle id="v58" depart="0" route="rou5" type="CarC"/>
<vehicle id="v59" depart="0" route="rou5" type="CarC"/>
<vehicle id="v60" depart="0" route="rou5" type="CarC"/>
<vehicle id="v61" depart="0" route="rou5" type="CarC"/>
<vehicle id="v62" depart="0" route="rou5" type="CarC"/>
<vehicle id="v63" depart="0" route="rou5" type="CarC"/>
<vehicle id="v64" depart="0" route="rou5" type="CarC"/>
<vehicle id="v65" depart="0" route="rou5" type="CarC"/>
<vehicle id="v66" depart="0" route="rou5" type="CarC"/>
<vehicle id="v67" depart="0" route="rou5" type="CarC"/>
<vehicle id="v68" depart="0" route="rou5" type="CarC"/>
<vehicle id="v69" depart="0" route="rou5" type="CarC"/>
<vehicle id="v70" depart="0" route="rou5" type="CarC"/>
<vehicle id="v71" depart="0" route="rou5" type="CarC"/>
<vehicle id="v72" depart="0" route="rou5" type="CarC"/>
<vehicle id="v73" depart="0" route="rou7" type="CarC"/>
<vehicle id="v74" depart="0" route="rou7" type="CarC"/>
<vehicle id="v75" depart="0" route="rou7" type="CarC"/>
<vehicle id="v76" depart="0" route="rou7" type="CarC"/>
<vehicle id="v77" depart="0" route="rou7" type="CarC"/>
<vehicle id="v78" depart="0" route="rou7" type="CarC"/>
<vehicle id="v79" depart="0" route="rou7" type="CarC"/>
<vehicle id="v80" depart="0" route="rou7" type="CarC"/>
<vehicle id="v81" depart="0" route="rou7" type="CarC"/>
<vehicle id="v82" depart="0" route="rou7" type="CarC"/>
<vehicle id="v83" depart="0" route="rou7" type="CarC"/>
<vehicle id="v84" depart="0" route="rou7" type="CarC"/>
<vehicle id="v85" depart="0" route="rou7" type="CarC"/>
<vehicle id="v86" depart="0" route="rou7" type="CarC"/>
<vehicle id="v87" depart="0" route="rou7" type="CarC"/>
<vehicle id="v88" depart="0" route="rou7" type="CarC"/>
<vehicle id="v89" depart="0" route="rou7" type="CarC"/>
<vehicle id="v90" depart="0" route="rou7" type="CarC"/>
<vehicle id="v91" depart="0" route="rou7" type="CarC"/>
<vehicle id="v92" depart="0" route="rou7" type="CarC"/>
<vehicle id="v93" depart="0" route="rou7" type="CarC"/>
<vehicle id="v94" depart="0" route="rou7" type="CarC"/>
<vehicle id="v95" depart="0" route="rou7" type="CarC"/>
<vehicle id="v96" depart="0" route="rou7" type="CarC"/>
<vehicle id="v97" depart="60" route="rou1" type="CarC"/>
<vehicle id="v98" depart="60" route="rou1" type="CarC"/>
<vehicle id="v99" depart="60" route="rou1" type="CarC"/>
<vehicle id="v100" depart="60" route="rou1" type="CarC"/>
<vehicle id="v101" depart="60" route="rou1" type="CarC"/>
<vehicle id="v102" depart="60" route="rou1" type="CarC"/>
<vehicle id="v103" depart="60" route="rou1" type="CarC"/>
<vehicle id="v104" depart="60" route="rou1" type="CarC"/>
<vehicle id="v105" depart="60" route="rou1" type="CarC"/>
<vehicle id="v106" depart="60" route="rou1" type="CarC"/>
<vehicle id="v107" depart="60" route="rou1" type="CarC"/>
<vehicle id="v108" depart="60" route="rou1" type="CarC"/>
<vehicle id="v109" depart="60" route="rou1" type="CarC"/>
<vehicle id="v110" depart="60" route="rou1" type="CarC"/>
<vehicle id="v111" depart="60" route="rou1" type="CarC"/>
<vehicle id="v112" depart="60" route="rou1" type="CarC"/>
<vehicle id="v113" depart="60" route="rou1" type="CarC"/>
<vehicle id="v114" depart="60" route="rou1" type="CarC"/>
<vehicle id="v115" depart="60" route="rou1" type="CarC"/>
<vehicle id="v116" depart="60" route="rou1" type="CarC"/>
<vehicle id="v117" depart="60" route="rou1" type="CarC"/>
<vehicle id="v118" depart="60" route="rou1" type="CarC"/>
<vehicle id="v119" depart="60" route="rou1" type="CarC"/>
<vehicle id="v120" depart="60" route="rou1" type="CarC"/>
<vehicle id="v121" depart="60" route="rou3" type="CarC"/>
<vehicle id="v122" depart="60" route="rou3" type="CarC"/>
<vehicle id="v123" depart="60" route="rou3" type="CarC"/>
<vehicle id="v124" depart="60" route="rou3" type="CarC"/>
<vehicle id="v125" depart="60" route="rou3" type="CarC"/>
<vehicle id="v126" depart="60" route="rou3" type="CarC"/>
<vehicle id="v127" depart="60" route="rou3" type="CarC"/>
<vehicle id="v128" depart="60" route="rou3" type="CarC"/>
<vehicle id="v129" depart="60" route="rou3" type="CarC"/>
<vehicle id="v130" depart="60" route="rou3" type="CarC"/>
<vehicle id="v131" depart="60" route="rou3" type="CarC"/>
<vehicle id="v132" depart="60" route="rou3" type="CarC"/>
<vehicle id="v133" depart="60" route="rou3" type="CarC"/>
<vehicle id="v134" depart="60" route="rou3" type="CarC"/>
<vehicle id="v135" depart="60" route="rou3" type="CarC"/>
<vehicle id="v136" depart="60" route="rou3" type="CarC"/>
<vehicle id="v137" depart="60" route="rou3" type="CarC"/>
<vehicle id="v138" depart="60" route="rou3" type="CarC"/>
<vehicle id="v139" depart="60" route="rou3" type="CarC"/>
<vehicle id="v140" depart="60" route="rou3" type="CarC"/>
<vehicle id="v141" depart="60" route="rou3" type="CarC"/>
<vehicle id="v142" depart="60" route="rou3" type="CarC"/>
<vehicle id="v143" depart="60" route="rou3" type="CarC"/>
<vehicle id="v144" depart="60" route="rou3" type="CarC"/>
<vehicle id="v145" depart="60" route="rou5" type="CarC"/>
<vehicle id="v146" depart="60" route="rou5" type="CarC"/>
<vehicle id="v147" depart="60" route="rou5" type="CarC"/>
<vehicle id="v148" depart="60" route="rou5" type="CarC"/>
<vehicle id="v149" depart="60" route="rou5" type="CarC"/>
<vehicle id="v150" depart="60" route="rou5" type="CarC"/>
<vehicle id="v151" depart="60" route="rou5" type="CarC"/>
<vehicle id="v152" depart="60" route="rou5" type="CarC"/>
<vehicle id="v153" depart="60" route="rou5" type="CarC"/>
<vehicle id="v154" depart="60" route="rou5" type="CarC"/>
<vehicle id="v155" depart="60" route="rou5" type="CarC"/>
<vehicle id="v156" depart="60" route="rou5" type="CarC"/>
<vehicle id="v157" depart="60" route="rou5" type="CarC"/>
<vehicle id="v158" depart="60" route="rou5" type="CarC"/>
<vehicle id="v159" depart="60" route="rou5" type="CarC"/>
<vehicle id="v160" depart="60" route="rou5" type="CarC"/>
<vehicle id="v161" depart="60" route="rou5" type="CarC"/>
<vehicle id="v162" depart="60" route="rou5" type="CarC"/>
<vehicle id="v163" depart="60" route="rou5" type="CarC"/>
<vehicle id="v164" depart="60" route="rou5" type="CarC"/>
<vehicle id="v165" depart="60" route="rou5" type="CarC"/>
<vehicle id="v166" depart="60" route="rou5" type="CarC"/>
<vehicle id="v167" depart="60" route="rou5" type="CarC"/>
<vehicle id="v168" depart="60" route="rou5" type="CarC"/>
<vehicle id="v169" depart="60" route="rou7" type="CarC"/>
<vehicle id="v170" depart="60" route="rou7" type="CarC"/>
<vehicle id="v171" depart="60" route="rou7" type="CarC"/>
<vehicle id="v172" depart="60" route="rou7" type="CarC"/>
<vehicle id="v173" depart="60" route="rou7" type="CarC"/>
<vehicle id="v174" depart="60" route="rou7" type="CarC"/>
<vehicle id="v175" depart="60" route="rou7" type="CarC"/>
<vehicle id="v176" depart="60" route="rou7" type="CarC"/>
<vehicle id="v177" depart="60" route="rou7" type="CarC"/>
<vehicle id="v178" depart="60" route="rou7" type="CarC"/>
<vehicle id="v179" depart="60" route="rou7" type="CarC"/>
<vehicle id="v180" depart="60" route="rou7" type="CarC"/>
<vehicle id="v181" depart="60" route="rou7" type="CarC"/>
<vehicle id="v182" depart="60" route="rou7" type="CarC"/>
<vehicle id="v183" depart="60" route="rou7" type="CarC"/>
<vehicle id="v184" depart="60" route="rou7" type="CarC"/>
<vehicle id="v185" depart="60" route="rou7" type="CarC"/>
<vehicle id="v186" depart="60" route="rou7" type="CarC"/>
<vehicle id="v187" depart="60" route="rou7" type="CarC"/>
<vehicle id="v188" depart="60" route="rou7" type="CarC"/>
<vehicle id="v189" depart="60" route="rou7" type="CarC"/>
<vehicle id="v190" depart="60" route="rou7" type="CarC"/>
<vehicle id="v191" depart="60" route="rou7" type="CarC"/>
<vehicle id="v192" depart="60" route="rou7" type="CarC"/>
<vehicle id="v193" depart="120" route="rou1" type="CarC"/>
<vehicle id="v194" depart="120" route="rou1" type="CarC"/>
<vehicle id="v195" depart="120" route="rou1" type="CarC"/>
<vehicle id="v196" depart="120" route="rou1" type="CarC"/>
<vehicle id="v197" depart="120" route="rou1" type="CarC"/>
<vehicle id="v198" depart="120" route="rou1" type="CarC"/>
<vehicle id="v199" depart="120" route="rou1" type="CarC"/>
<vehicle id="v200" depart="120" route="rou1" type="CarC"/>
<vehicle id="v201" depart="120" route="rou1" type="CarC"/>
<vehicle id="v202" depart="120" route="rou1" type="CarC"/>
<vehicle id="v203" depart="120" route="rou1" type="CarC"/>
<vehicle id="v204" depart="120" route="rou1" type="CarC"/>
<vehicle id="v205" depart="120" route="rou1" type="CarC"/>
<vehicle id="v206" depart="120" route="rou1" type="CarC"/>
<vehicle id="v207" depart="120" route="rou1" type="CarC"/>
<vehicle id="v208" depart="120" route="rou1" type="CarC"/>
<vehicle id="v209" depart="120" route="rou1" type="CarC"/>
<vehicle id="v210" depart="120" route="rou1" type="CarC"/>
<vehicle id="v211" depart="120" route="rou1" type="CarC"/>
<vehicle id="v212" depart="120" route="rou1" type="CarC"/>
<vehicle id="v213" depart="120" route="rou1" type="CarC"/>
<vehicle id="v214" depart="120" route="rou1" type="CarC"/>
<vehicle id="v215" depart="120" route="rou1" type="CarC"/>
<vehicle id="v216" depart="120" route="rou1" type="CarC"/>
<vehicle id="v217" depart="120" route="rou3" type="CarC"/>
<vehicle id="v218" depart="120" route="rou3" type="CarC"/>
<vehicle id="v219" depart="120" route="rou3" type="CarC"/>
<vehicle id="v220" depart="120" route="rou3" type="CarC"/>
<vehicle id="v221" depart="120" route="rou3" type="CarC"/>
<vehicle id="v222" depart="120" route="rou3" type="CarC"/>
<vehicle id="v223" depart="120" route="rou3" type="CarC"/>
<vehicle id="v224" depart="120" route="rou3" type="CarC"/>
<vehicle id="v225" depart="120" route="rou3" type="CarC"/>
<vehicle id="v226" depart="120" route="rou3" type="CarC"/>
<vehicle id="v227" depart="120" route="rou3" type="CarC"/>
<vehicle id="v228" depart="120" route="rou3" type="CarC"/>
<vehicle id="v229" depart="120" route="rou3" type="CarC"/>
<vehicle id="v230" depart="120" route="rou3" type="CarC"/>
<vehicle id="v231" depart="120" route="rou3" type="CarC"/>
<vehicle id="v232" depart="120" route="rou3" type="CarC"/>
<vehicle id="v233" depart="120" route="rou3" type="CarC"/>
<vehicle id="v234" depart="120" route="rou3" type="CarC"/>
<vehicle id="v235" depart="120" route="rou3" type="CarC"/>
<vehicle id="v236" depart="120" route="rou3" type="CarC"/>
<vehicle id="v237" depart="120" route="rou3" type="CarC"/>
<vehicle id="v238" depart="120" route="rou3" type="CarC"/>
<vehicle id="v239" depart="120" route="rou3" type="CarC"/>
<vehicle id="v240" depart="120" route="rou3" type="CarC"/>
<vehicle id="v241" depart="120" route="rou5" type="CarC"/>
<vehicle id="v242" depart="120" route="rou5" type="CarC"/>
<vehicle id="v243" depart="120" route="rou5" type="CarC"/>
<vehicle id="v244" depart="120" route="rou5" type="CarC"/>
<vehicle id="v245" depart="120" route="rou5" type="CarC"/>
<vehicle id="v246" depart="120" route="rou5" type="CarC"/>
<vehicle id="v247" depart="120" route="rou5" type="CarC"/>
<vehicle id="v248" depart="120" route="rou5" type="CarC"/>
<vehicle id="v249" depart="120" route="rou5" type="CarC"/>
<vehicle id="v250" depart="120" route="rou5" type="CarC"/>
<vehicle id="v251" depart="120" route="rou5" type="CarC"/>
<vehicle id="v252" depart="120" route="rou5" type="CarC"/>
<vehicle id="v253" depart="120" route="rou5" type="CarC"/>
<vehicle id="v254" depart="120" route="rou5" type="CarC"/>
<vehicle id="v255" depart="120" route="rou5" type="CarC"/>
<vehicle id="v256" depart="120" route="rou5" type="CarC"/>
<vehicle id="v257" depart="120" route="rou5" type="CarC"/>
<vehicle id="v258" depart="120" route="rou5" type="CarC"/>
<vehicle id="v259" depart="120" route="rou5" type="CarC"/>
<vehicle id="v260" depart="120" route="rou5" type="CarC"/>
<vehicle id="v261" depart="120" route="rou5" type="CarC"/>
<vehicle id="v262" depart="120" route="rou5" type="CarC"/>
<vehicle id="v263" depart="120" route="rou5" type="CarC"/>
<vehicle id="v264" depart="120" route="rou5" type="CarC"/>
<vehicle id="v265" depart="120" route="rou7" type="CarC"/>
<vehicle id="v266" depart="120" route="rou7" type="CarC"/>
<vehicle id="v267" depart="120" route="rou7" type="CarC"/>
<vehicle id="v268" depart="120" route="rou7" type="CarC"/>
<vehicle id="v269" depart="120" route="rou7" type="CarC"/>
<vehicle id="v270" depart="120" route="rou7" type="CarC"/>
<vehicle id="v271" depart="120" route="rou7" type="CarC"/>
<vehicle id="v272" depart="120" route="rou7" type="CarC"/>
<vehicle id="v273" depart="120" route="rou7" type="CarC"/>
<vehicle id="v274" depart="120" route="rou7" type="CarC"/>
<vehicle id="v275" depart="120" route="rou7" type="CarC"/>
<vehicle id="v276" depart="120" route="rou7" type="CarC"/>
<vehicle id="v277" depart="120" route="rou7" type="CarC"/>
<vehicle id="v278" depart="120" route="rou7" type="CarC"/>
<vehicle id="v279" depart="120" route="rou7" type="CarC"/>
<vehicle id="v280" depart="120" route="rou7" type="CarC"/>
<vehicle id="v281" depart="120" route="rou7" type="CarC"/>
<vehicle id="v282" depart="120" route="rou7" type="CarC"/>
<vehicle id="v283" depart="120" route="rou7" type="CarC"/>
<vehicle id="v284" depart="120" route="rou7" type="CarC"/>
<vehicle id="v285" depart="120" route="rou7" type="CarC"/>
<vehicle id="v286" depart="120" route="rou7" type="CarC"/>
<vehicle id="v287" depart="120" route="rou7" type="CarC"/>
<vehicle id="v288" depart="120" route="rou7" type="CarC"/>
<vehicle id="v289" depart="180" route="rou1" type="CarC"/>
<vehicle id="v290" depart="180" route="rou1" type="CarC"/>
<vehicle id="v291" depart="180" route="rou1" type="CarC"/>
<vehicle id="v292" depart="180" route="rou1" type="CarC"/>
<vehicle id="v293" depart="180" route="rou1" type="CarC"/>
<vehicle id="v294" depart="180" route="rou1" type="CarC"/>
<vehicle id="v295" depart="180" route="rou1" type="CarC"/>
<vehicle id="v296" depart="180" route="rou1" type="CarC"/>
<vehicle id="v297" depart="180" route="rou1" type="CarC"/>
<vehicle id="v298" depart="180" route="rou1" type="CarC"/>
<vehicle id="v299" depart="180" route="rou1" type="CarC"/>
<vehicle id="v300" depart="180" route="rou1" type="CarC"/>
<vehicle id="v301" depart="180" route="rou1" type="CarC"/>
<vehicle id="v302" depart="180" route="rou1" type="CarC"/>
<vehicle id="v303" depart="180" route="rou1" type="CarC"/>
<vehicle id="v304" depart="180" route="rou1" type="CarC"/>
<vehicle id="v305" depart="180" route="rou1" type="CarC"/>
<vehicle id="v306" depart="180" route="rou1" type="CarC"/>
<vehicle id="v307" depart="180" route="rou1" type="CarC"/>
<vehicle id="v308" depart="180" route="rou1" type="CarC"/>
<vehicle id="v309" depart="180" route="rou1" type="CarC"/>
<vehicle id="v310" depart="180" route="rou1" type="CarC"/>
<vehicle id="v311" depart="180" route="rou1" type="CarC"/>
<vehicle id="v312" depart="180" route="rou1" type="CarC"/>
<vehicle id="v313" depart="180" route="rou3" type="CarC"/>
<vehicle id="v314" depart="180" route="rou3" type="CarC"/>
<vehicle id="v315" depart="180" route="rou3" type="CarC"/>
<vehicle id="v316" depart="180" route="rou3" type="CarC"/>
<vehicle id="v317" depart="180" route="rou3" type="CarC"/>
<vehicle id="v318" depart="180" route="rou3" type="CarC"/>
<vehicle id="v319" depart="180" route="rou3" type="CarC"/>
<vehicle id="v320" depart="180" route="rou3" type="CarC"/>
<vehicle id="v321" depart="180" route="rou3" type="CarC"/>
<vehicle id="v322" depart="180" route="rou3" type="CarC"/>
<vehicle id="v323" depart="180" route="rou3" type="CarC"/>
<vehicle id="v324" depart="180" route="rou3" type="CarC"/>
<vehicle id="v325" depart="180" route="rou3" type="CarC"/>
<vehicle id="v326" depart="180" route="rou3" type="CarC"/>
<vehicle id="v327" depart="180" route="rou3" type="CarC"/>
<vehicle id="v328" depart="180" route="rou3" type="CarC"/>
<vehicle id="v329" depart="180" route="rou3" type="CarC"/>
<vehicle id="v330" depart="180" route="rou3" type="CarC"/>
<vehicle id="v331" depart="180" route="rou3" type="CarC"/>
<vehicle id="v332" depart="180" route="rou3" type="CarC"/>
<vehicle id="v333" depart="180" route="rou3" type="CarC"/>
<vehicle id="v334" depart="180" route="rou3" type="CarC"/>
<vehicle id="v335" depart="180" route="rou3" type="CarC"/>
<vehicle id="v336" depart="180" route="rou3" type="CarC"/>
<vehicle id="v337" depart="180" route="rou5" type="CarC"/>
<vehicle id="v338" depart="180" route="rou5" type="CarC"/>
<vehicle id="v339" depart="180" route="rou5" type="CarC"/>
<vehicle id="v340" depart="180" route="rou5" type="CarC"/>
<vehicle id="v341" depart="180" route="rou5" type="CarC"/>
<vehicle id="v342" depart="180" route="rou5" type="CarC"/>
<vehicle id="v343" depart="180" route="rou5" type="CarC"/>
<vehicle id="v344" depart="180" route="rou5" type="CarC"/>
<vehicle id="v345" depart="180" route="rou5" type="CarC"/>
<vehicle id="v346" depart="180" route="rou5" type="CarC"/>
<vehicle id="v347" depart="180" route="rou5" type="CarC"/>
<vehicle id="v348" depart="180" route="rou5" type="CarC"/>
<vehicle id="v349" depart="180" route="rou5" type="CarC"/>
<vehicle id="v350" depart="180" route="rou5" type="CarC"/>
<vehicle id="v351" depart="180" route="rou5" type="CarC"/>
<vehicle id="v352" depart="180" route="rou5" type="CarC"/>
<vehicle id="v353" depart="180" route="rou5" type="CarC"/>
<vehicle id="v354" depart="180" route="rou5" type="CarC"/>
<vehicle id="v355" depart="180" route="rou5" type="CarC"/>
<vehicle id="v356" depart="180" route="rou5" type="CarC"/>
<vehicle id="v357" depart="180" route="rou5" type="CarC"/>
<vehicle id="v358" depart="180" route="rou5" type="CarC"/>
<vehicle id="v359" depart="180" route="rou5" type="CarC"/>
<vehicle id="v360" depart="180" route="rou5" type="CarC"/>
<vehicle id="v361" depart="180" route="rou7" type="CarC"/>
<vehicle id="v362" depart="180" route="rou7" type="CarC"/>
<vehicle id="v363" depart="180" route="rou7" type="CarC"/>
<vehicle id="v364" depart="180" route="rou7" type="CarC"/>
<vehicle id="v365" depart="180" route="rou7" type="CarC"/>
<vehicle id="v366" depart="180" route="rou7" type="CarC"/>
<vehicle id="v367" depart="180" route="rou7" type="CarC"/>
<vehicle id="v368" depart="180" route="rou7" type="CarC"/>
<vehicle id="v369" depart="180" route="rou7" type="CarC"/>
<vehicle id="v370" depart="180" route="rou7" type="CarC"/>
<vehicle id="v371" depart="180" route="rou7" type="CarC"/>
<vehicle id="v372" depart="180" route="rou7" type="CarC"/>
<vehicle id="v373" depart="180" route="rou7" type="CarC"/>
<vehicle id="v374" depart="180" route="rou7" type="CarC"/>
<vehicle id="v375" depart="180" route="rou7" type="CarC"/>
<vehicle id="v376" depart="180" route="rou7" type="CarC"/>
<vehicle id="v377" depart="180" route="rou7" type="CarC"/>
<vehicle id="v378" depart="180" route="rou7" type="CarC"/>
<vehicle id="v379" depart="180" route="rou7" type="CarC"/>
<vehicle id="v380" depart="180" route="rou7" type="CarC"/>
<vehicle id="v381" depart="180" route="rou7" type="CarC"/>
<vehicle id="v382" depart="180" route="rou7" type="CarC"/>
<vehicle id="v383" depart="180" route="rou7" type="CarC"/>
<vehicle id="v384" depart="180" route="rou7" type="CarC"/>
<vehicle id="v385" depart="240" route="rou1" type="CarC"/>
<vehicle id="v386" depart="240" route="rou1" type="CarC"/>
<vehicle id="v387" depart="240" route="rou1" type="CarC"/>
<vehicle id="v388" depart="240" route="rou1" type="CarC"/>
<vehicle id="v389" depart="240" route="rou1" type="CarC"/>
<vehicle id="v390" depart="240" route="rou1" type="CarC"/>
<vehicle id="v391" depart="240" route="rou1" type="CarC"/>
<vehicle id="v392" depart="240" route="rou1" type="CarC"/>
<vehicle id="v393" depart="240" route="rou1" type="CarC"/>
<vehicle id="v394" depart="240" route="rou1" type="CarC"/>
<vehicle id="v395" depart="240" route="rou1" type="CarC"/>
<vehicle id="v396" depart="240" route="rou1" type="CarC"/>
<vehicle id="v397" depart="240" route="rou1" type="CarC"/>
<vehicle id="v398" depart="240" route="rou1" type="CarC"/>
<vehicle id="v399" depart="240" route="rou1" type="CarC"/>
<vehicle id="v400" depart="240" route="rou1" type="CarC"/>
<vehicle id="v401" depart="240" route="rou1" type="CarC"/>
<vehicle id="v402" depart="240" route="rou1" type="CarC"/>
<vehicle id="v403" depart="240" route="rou1" type="CarC"/>
<vehicle id="v404" depart="240" route="rou1" type="CarC"/>
<vehicle id="v405" depart="240" route="rou1" type="CarC"/>
<vehicle id="v406" depart="240" route="rou1" type="CarC"/>
<vehicle id="v407" depart="240" route="rou1" type="CarC"/>
<vehicle id="v408" depart="240" route="rou1" type="CarC"/>
<vehicle id="v409" depart="240" route="rou3" type="CarC"/>
<vehicle id="v410" depart="240" route="rou3" type="CarC"/>
<vehicle id="v411" depart="240" route="rou3" type="CarC"/>
<vehicle id="v412" depart="240" route="rou3" type="CarC"/>
<vehicle id="v413" depart="240" route="rou3" type="CarC"/>
<vehicle id="v414" depart="240" route="rou3" type="CarC"/>
<vehicle id="v415" depart="240" route="rou3" type="CarC"/>
<vehicle id="v416" depart="240" route="rou3" type="CarC"/>
<vehicle id="v417" depart="240" route="rou3" type="CarC"/>
<vehicle id="v418" depart="240" route="rou3" type="CarC"/>
<vehicle id="v419" depart="240" route="rou3" type="CarC"/>
<vehicle id="v420" depart="240" route="rou3" type="CarC"/>
<vehicle id="v421" depart="240" route="rou3" type="CarC"/>
<vehicle id="v422" depart="240" route="rou3" type="CarC"/>
<vehicle id="v423" depart="240" route="rou3" type="CarC"/>
<vehicle id="v424" depart="240" route="rou3" type="CarC"/>
<vehicle id="v425" depart="240" route="rou3" type="CarC"/>
<vehicle id="v426" depart="240" route="rou3" type="CarC"/>
<vehicle id="v427" depart="240" route="rou3" type="CarC"/>
<vehicle id="v428" depart="240" route="rou3" type="CarC"/>
<vehicle id="v429" depart="240" route="rou3" type="CarC"/>
<vehicle id="v430" depart="240" route="rou3" type="CarC"/>
<vehicle id="v431" depart="240" route="rou3" type="CarC"/>
<vehicle id="v432" depart="240" route="rou3" type="CarC"/>
<vehicle id="v433" depart="240" route="rou5" type="CarC"/>
<vehicle id="v434" depart="240" route="rou5" type="CarC"/>
<vehicle id="v435" depart="240" route="rou5" type="CarC"/>
<vehicle id="v436" depart="240" route="rou5" type="CarC"/>
<vehicle id="v437" depart="240" route="rou5" type="CarC"/>
<vehicle id="v438" depart="240" route="rou5" type="CarC"/>
<vehicle id="v439" depart="240" route="rou5" type="CarC"/>
<vehicle id="v440" depart="240" route="rou5" type="CarC"/>
<vehicle id="v441" depart="240" route="rou5" type="CarC"/>
<vehicle id="v442" depart="240" route="rou5" type="CarC"/>
<vehicle id="v443" depart="240" route="rou5" type="CarC"/>
<vehicle id="v444" depart="240" route="rou5" type="CarC"/>
<vehicle id="v445" depart="240" route="rou5" type="CarC"/>
<vehicle id="v446" depart="240" route="rou5" type="CarC"/>
<vehicle id="v447" depart="240" route="rou5" type="CarC"/>
<vehicle id="v448" depart="240" route="rou5" type="CarC"/>
<vehicle id="v449" depart="240" route="rou5" type="CarC"/>
<vehicle id="v450" depart="240" route="rou5" type="CarC"/>
<vehicle id="v451" depart="240" route="rou5" type="CarC"/>
<vehicle id="v452" depart="240" route="rou5" type="CarC"/>
<vehicle id="v453" depart="240" route="rou5" type="CarC"/>
<vehicle id="v454" depart="240" route="rou5" type="CarC"/>
<vehicle id="v455" depart="240" route="rou5" type="CarC"/>
<vehicle id="v456" depart="240" route="rou5" type="CarC"/>
<vehicle id="v457" depart="240" route="rou7" type="CarC"/>
<vehicle id="v458" depart="240" route="rou7" type="CarC"/>
<vehicle id="v459" depart="240" route="rou7" type="CarC"/>
<vehicle id="v460" depart="240" route="rou7" type="CarC"/>
<vehicle id="v461" depart="240" route="rou7" type="CarC"/>
<vehicle id="v462" depart="240" route="rou7" type="CarC"/>
<vehicle id="v463" depart="240" route="rou7" type="CarC"/>
<vehicle id="v464" depart="240" route="rou7" type="CarC"/>
<vehicle id="v465" depart="240" route="rou7" type="CarC"/>
<vehicle id="v466" depart="240" route="rou7" type="CarC"/>
<vehicle id="v467" depart="240" route="rou7" type="CarC"/>
<vehicle id="v468" depart="240" route="rou7" type="CarC"/>
<vehicle id="v469" depart="240" route="rou7" type="CarC"/>
<vehicle id="v470" depart="240" route="rou7" type="CarC"/>
<vehicle id="v471" depart="240" route="rou7" type="CarC"/>
<vehicle id="v472" depart="240" route="rou7" type="CarC"/>
<vehicle id="v473" depart="240" route="rou7" type="CarC"/>
<vehicle id="v474" depart="240" route="rou7" type="CarC"/>
<vehicle id="v475" depart="240" route="rou7" type="CarC"/>
<vehicle id="v476" depart="240" route="rou7" type="CarC"/>
<vehicle id="v477" depart="240" route="rou7" type="CarC"/>
<vehicle id="v478" depart="240" route="rou7" type="CarC"/>
<vehicle id="v479" depart="240" route="rou7" type="CarC"/>
<vehicle id="v480" depart="240" route="rou7" type="CarC"/>
<vehicle id="v481" depart="300" route="rou1" type="CarC"/>
<vehicle id="v482" depart="300" route="rou1" type="CarC"/>
<vehicle id="v483" depart="300" route="rou1" type="CarC"/>
<vehicle id="v484" depart="300" route="rou1" type="CarC"/>
<vehicle id="v485" depart="300" route="rou1" type="CarC"/>
<vehicle id="v486" depart="300" route="rou1" type="CarC"/>
<vehicle id="v487" depart="300" route="rou1" type="CarC"/>
<vehicle id="v488" depart="300" route="rou1" type="CarC"/>
<vehicle id="v489" depart="300" route="rou1" type="CarC"/>
<vehicle id="v490" depart="300" route="rou1" type="CarC"/>
<vehicle id="v491" depart="300" route="rou1" type="CarC"/>
<vehicle id="v492" depart="300" route="rou1" type="CarC"/>
<vehicle id="v493" depart="300" route="rou1" type="CarC"/>
<vehicle id="v494" depart="300" route="rou1" type="CarC"/>
<vehicle id="v495" depart="300" route="rou1" type="CarC"/>
<vehicle id="v496" depart="300" route="rou1" type="CarC"/>
<vehicle id="v497" depart="300" route="rou1" type="CarC"/>