<routes>
	<!--
    <vType accel="1.0" decel="5.0" id="Car" length="2.0" maxSpeed="100.0" sigma="0.0" />
    <route id="route0" edges="E1 E4"/>
    <vehicle depart="1" id="veh0" route="route0" type="Car" />
	-->
	
	<vType accel="2.6" decel="4.5" id="CarA" length="6.0" minGap="2.5" maxSpeed="40.0" sigma="0.5" />
	<vType accel="2.6" decel="4.5" id="CarB" length="5.5" minGap="2.5" maxSpeed="40.0" sigma="0.5" />
	<vType accel="2.6" decel="4.5" id="CarC" length="5.0" minGap="2.5" maxSpeed="40.0" sigma="0.5" />
	<vType accel="2.6" decel="4.5" id="CarD" length="4.5" minGap="2.5" maxSpeed="40.0" sigma="0.5" />
	
	<route id="rou1" edges="E1 E6"/>
	<route id="rou2" edges="E1 E4"/>
	<route id="rou3" edges="E3 E8"/>
	<route id="rou4" edges="E3 E6"/>
	<route id="rou5" edges="E5 E2"/>
	<route id="rou6" edges="E5 E8"/>
	<route id="rou7" edges="E7 E4"/>
	<route id="rou8" edges="E7 E2"/>
	<route id="rou9" edges="E1 E8"/>
	<route id="rou10" edges="E3 E2"/>
	<route id="rou11" edges="E5 E4"/>
	<route id="rou12" edges="E7 E6"/>
	
	<vehicle depart="0" id="veh0" route="rou5" type="CarA"/>
<vehicle depart="0" id="veh1" route="rou5" type="CarA"/>
<vehicle depart="0" id="veh2" route="rou5" type="CarA"/>
<vehicle depart="0" id="veh3" route="rou5" type="CarA"/>
<vehicle depart="0" id="veh4" route="rou5" type="CarA"/>
<vehicle depart="0" id="veh5" route="rou5" type="CarA"/>
<vehicle depart="0" id="veh6" route="rou5" type="CarA"/>
<vehicle depart="0" id="veh7" route="rou5" type="CarA"/>
<vehicle depart="0" id="veh8" route="rou5" type="CarA"/>
<vehicle depart="0" id="veh9" route="rou5" type="CarA"/>
<vehicle depart="0" id="veh10" route="rou5" type="CarA"/>
<vehicle depart="0" id="veh11" route="rou5" type="CarA"/>
<vehicle depart="0" id="veh12" route="rou5" type="CarA"/>
<vehicle depart="0" id="veh13" route="rou5" type="CarA"/>
<vehicle depart="0" id="veh14" route="rou5" type="CarA"/>
<vehicle depart="0" id="veh15" route="rou5" type="CarA"/>
<vehicle depart="0" id="veh16" route="rou5" type="CarA"/>
<vehicle depart="0" id="veh17" route="rou5" type="CarA"/>
<vehicle depart="0" id="veh18" route="rou5" type="CarA"/>
<vehicle depart="0" id="veh19" route="rou5" type="CarA"/>
<vehicle depart="0" id="veh20" route="rou5" type="CarA"/>
<vehicle depart="0" id="veh21" route="rou5" type="CarA"/>
<vehicle depart="0" id="veh22" route="rou5" type="CarA"/>
<vehicle depart="0" id="veh23" route="rou5" type="CarA"/>
<vehicle depart="0" id="veh24" route="rou5" type="CarA"/>
<vehicle depart="0" id="veh25" route="rou5" type="CarA"/>
<vehicle depart="0" id="veh26" route="rou5" type="CarA"/>
<vehicle depart="0" id="veh27" route="rou5" type="CarA"/>
<vehicle depart="0" id="veh28" route="rou5" type="CarA"/>
<vehicle depart="0" id="veh29" route="rou5" type="CarA"/>
<vehicle depart="0" id="veh30" route="rou5" type="CarA"/>
<vehicle depart="0" id="veh31" route="rou5" type="CarA"/>
<vehicle depart="60" id="veh32" route="rou5" type="CarA"/>
<vehicle depart="60" id="veh33" route="rou5" type="CarA"/>
<vehicle depart="60" id="veh34" route="rou5" type="CarA"/>
<vehicle depart="60" id="veh35" route="rou5" type="CarA"/>
<vehicle depart="60" id="veh36" route="rou5" type="CarA"/>
<vehicle depart="60" id="veh37" route="rou5" type="CarA"/>
<vehicle depart="60" id="veh38" route="rou5" type="CarA"/>
<vehicle depart="60" id="veh39" route="rou5" type="CarA"/>
<vehicle depart="60" id="veh40" route="rou5" type="CarA"/>
<vehicle depart="60" id="veh41" route="rou5" type="CarA"/>
<vehicle depart="60" id="veh42" route="rou5" type="CarA"/>
<vehicle depart="60" id="veh43" route="rou5" type="CarA"/>
<vehicle depart="60" id="veh44" route="rou5" type="CarA"/>
<vehicle depart="60" id="veh45" route="rou5" type="CarA"/>
<vehicle depart="60" id="veh46" route="rou5" type="CarA"/>
<vehicle depart="60" id="veh47" route="rou5" type="CarA"/>
<vehicle depart="60" id="veh48" route="rou5" type="CarA"/>
<vehicle depart="60" id="veh49" route="rou5" type="CarA"/>
<vehicle depart="60" id="veh50" route="rou5" type="CarA"/>
<vehicle depart="60" id="veh51" route="rou5" type="CarA"/>
<vehicle depart="60" id="veh52" route="rou5" type="CarA"/>
<vehicle depart="60" id="veh53" route="rou5" type="CarA"/>
<vehicle depart="60" id="veh54" route="rou5" type="CarA"/>
<vehicle depart="60" id="veh55" route="rou5" type="CarA"/>
<vehicle depart="60" id="veh56" route="rou5" type="CarA"/>
<vehicle depart="60" id="veh57" route="rou5" type="CarA"/>
<vehicle depart="60" id="veh58" route="rou5" type="CarA"/>
<vehicle depart="60" id="veh59" route="rou5" type="CarA"/>
<vehicle depart="60" id="veh60" route="rou5" type="CarA"/>
<vehicle depart="60" id="veh61" route="rou5" type="CarA"/>
<vehicle depart="60" id="veh62" route="rou5" type="CarA"/>
<vehicle depart="120" id="veh63" route="rou5" type="CarA"/>
<vehicle depart="120" id="veh64" route="rou5" type="CarA"/>
<vehicle depart="120" id="veh65" route="rou5" type="CarA"/>
<vehicle depart="120" id="veh66" route="rou5" type="CarA"/>
<vehicle depart="120" id="veh67" route="rou5" type="CarA"/>
<vehicle depart="120" id="veh68" route="rou5" type="CarA"/>
<vehicle depart="120" id="veh69" route="rou5" type="CarA"/>
<vehicle depart="120" id="veh70" route="rou5" type="CarA"/>
<vehicle depart="120" id="veh71" route="rou5" type="CarA"/>
<vehicle depart="120" id="veh72" route="rou5" type="CarA"/>
<vehicle depart="120" id="veh73" route="rou5" type="CarA"/>
<vehicle depart="120" id="veh74" route="rou5" type="CarA"/>
<vehicle depart="120" id="veh75" route="rou5" type="CarA"/>
<vehicle depart="120" id="veh76" route="rou5" type="CarA"/>
<vehicle depart="120" id="veh77" route="rou5" type="CarA"/>
<vehicle depart="120" id="veh78" route="rou5" type="CarA"/>
<vehicle depart="120" id="veh79" route="rou5" type="CarA"/>
<vehicle depart="120" id="veh80" route="rou5" type="CarA"/>
<vehicle depart="120" id="veh81" route="rou5" type="CarA"/>
<vehicle depart="120" id="veh82" route="rou5" type="CarA"/>
<vehicle depart="120" id="veh83" route="rou5" type="CarA"/>
<vehicle depart="120" id="veh84" route="rou5" type="CarA"/>
<vehicle depart="120" id="veh85" route="rou5" type="CarA"/>
<vehicle depart="120" id="veh86" route="rou5" type="CarA"/>
<vehicle depart="120" id="veh87" route="rou5" type="CarA"/>
<vehicle depart="120" id="veh88" route="rou5" type="CarA"/>
<vehicle depart="120" id="veh89" route="rou5" type="CarA"/>
<vehicle depart="120" id="veh90" route="rou5" type="CarA"/>
<vehicle depart="120" id="veh91" route="rou5" type="CarA"/>
<vehicle depart="120" id="veh92" route="rou5" type="CarA"/>
<vehicle depart="180" id="veh93" route="rou5" type="CarA"/>
<vehicle depart="180" id="veh94" route="rou5" type="CarA"/>
<vehicle depart="180" id="veh95" route="rou5" type="CarA"/>
<vehicle depart="180" id="veh96" route="rou5" type="CarA"/>
<vehicle depart="180" id="veh97" route="rou5" type="CarA"/>
<vehicle depart="180" id="veh98" route="rou5" type="CarA"/>
<vehicle depart="180" id="veh99" route="rou5" type="CarA"/>
<vehicle depart="180" id="veh100" route="rou5" type="CarA"/>
<vehicle depart="180" id="veh101" route="rou5" type="CarA"/>
<vehicle depart="180" id="veh102" route="rou5" type="CarA"/>
<vehicle depart="180" id="veh103" route="rou5" type="CarA"/>
<vehicle depart="180" id="veh104" route="rou5" type="CarA"/>
<vehicle depart="180" id="veh105" route="rou5" type="CarA"/>
<vehicle depart="180" id="veh106" route="rou5" type="CarA"/>
<vehicle depart="180" id="veh107" route="rou5" type="CarA"/>
<vehicle depart="180" id="veh108" route="rou5" type="CarA"/>
<vehicle depart="180" id="veh109" route="rou5" type="CarA"/>
<vehicle depart="180" id="veh110" route="rou5" type="CarA"/>
<vehicle depart="180" id="veh111" route="rou5" type="CarA"/>
<vehicle depart="180" id="veh112" route="rou5" type="CarA"/>
<vehicle depart="180" id="veh113" route="rou5" type="CarA"/>
<vehicle depart="180" id="veh114" route="rou5" type="CarA"/>
<vehicle depart="180" id="veh115" route="rou5" type="CarA"/>
<vehicle depart="180" id="veh116" route="rou5" type="CarA"/>
<vehicle depart="180" id="veh117" route="rou5" type="CarA"/>
<vehicle depart="180" id="veh118" route="rou5" type="CarA"/>
<vehicle depart="180" id="veh119" route="rou5" type="CarA"/>
<vehicle depart="180" id="veh120" route="rou5" type="CarA"/>
<vehicle depart="180" id="veh121" route="rou5" type="CarA"/>
<vehicle depart="240" id="veh122" route="rou5" type="CarA"/>
<vehicle depart="240" id="veh123" route="rou5" type="CarA"/>
<vehicle depart="240" id="veh124" route="rou5" type="CarA"/>
<vehicle depart="240" id="veh125" route="rou5" type="CarA"/>
<vehicle depart="240" id="veh126" route="rou5" type="CarA"/>
<vehicle depart="240" id="veh127" route="rou5" type="CarA"/>
<vehicle depart="240" id="veh128" route="rou5" type="CarA"/>
<vehicle depart="240" id="veh129" route="rou5" type="CarA"/>
<vehicle depart="240" id="veh130" route="rou5" type="CarA"/>
<vehicle depart="240" id="veh131" route="rou5" type="CarA"/>
<vehicle depart="240" id="veh132" route="rou5" type="CarA"/>
<vehicle depart="240" id="veh133" route="rou5" type="CarA"/>
<vehicle depart="240" id="veh134" route="rou5" type="CarA"/>
<vehicle depart="240" id="veh135" route="rou5" type="CarA"/>
<vehicle depart="240" id="veh136" route="rou5" type="CarA"/>
<vehicle depart="240" id="veh137" route="rou5" type="CarA"/>
<vehicle depart="240" id="veh138" route="rou5" type="CarA"/>
<vehicle depart="240" id="veh139" route="rou5" type="CarA"/>
<vehicle depart="240" id="veh140" route="rou5" type="CarA"/>
<vehicle depart="240" id="veh141" route="rou5" type="CarA"/>
<vehicle depart="240" id="veh142" route="rou5" type="CarA"/>
<vehicle depart="240" id="veh143" route="rou5" type="CarA"/>
<vehicle depart="240" id="veh144" route="rou5" type="CarA"/>
<vehicle depart="240" id="veh145" route="rou5" type="CarA"/>
<vehicle depart="240" id="veh146" route="rou5" type="CarA"/>
<vehicle depart="240" id="veh147" route="rou5" type="CarA"/>
<vehicle depart="240" id="veh148" route="rou5" type="CarA"/>
<vehicle depart="240" id="veh149" route="rou5" type="CarA"/>
<vehicle depart="300" id="veh150" route="rou5" type="CarA"/>
<vehicle depart="300" id="veh151" route="rou5" type="CarA"/>
<vehicle depart="300" id="veh152" route="rou5" type="CarA"/>
<vehicle depart="300" id="veh153" route="rou5" type="CarA"/>
<vehicle depart="300" id="veh154" route="rou5" type="CarA"/>
<vehicle depart="300" id="veh155" route="rou5" type="CarA"/>
<vehicle depart="300" id="veh156" route="rou5" type="CarA"/>
<vehicle depart="300" id="veh157" route="rou5" type="CarA"/>
<vehicle depart="300" id="veh158" route="rou5" type="CarA"/>
<vehicle depart="300" id="veh159" route="rou5" type="CarA"/>
<vehicle depart="300" id="veh160" route="rou5" type="CarA"/>
<vehicle depart="300" id="veh161" route="rou5" type="CarA"/>
<vehicle depart="300" id="veh162" route="rou5" type="CarA"/>
<vehicle depart="300" id="veh163" route="rou5" type="CarA"/>
<vehicle depart="300" id="veh164" route="rou5" type="CarA"/>
<vehicle depart="300" id="veh165" route="rou5" type="CarA"/>
<vehicle depart="300" id="veh166" route="rou5" type="CarA"/>
<vehicle depart="300" id="veh167" route="rou5" type="CarA"/>
<vehicle depart="300" id="veh168" route="rou5" type="CarA"/>
<vehicle depart="300" id="veh169" route="rou5" type="CarA"/>
<vehicle depart="300" id="veh170" route="rou5" type="CarA"/>
<vehicle depart="300" id="veh171" route="rou5" type="CarA"/>
<vehicle depart="300" id="veh172" route="rou5" type="CarA"/>
<vehicle depart="300" id="veh173" route="rou5" type="CarA"/>
<vehicle depart="300" id="veh174" route="rou5" type="CarA"/>
<vehicle depart="300" id="veh175" route="rou5" type="CarA"/>
<vehicle depart="300" id="veh176" route="rou5" type="CarA"/>
<vehicle depart="360" id="veh177" route="rou5" type="CarA"/>
<vehicle depart="360" id="veh178" route="rou5" type="CarA"/>
<vehicle depart="360" id="veh179" route="rou5" type="CarA"/>
<vehicle depart="360" id="veh180" route="rou5" type="CarA"/>
<vehicle depart="360" id="veh181" route="rou5" type="CarA"/>
<vehicle depart="360" id="veh182" route="rou5" type="CarA"/>
<vehicle depart="360" id="veh183" route="rou5" type="CarA"/>
<vehicle depart="360" id="veh184" route="rou5" type="CarA"/>
<vehicle depart="360" id="veh185" route="rou5" type="CarA"/>
<vehicle depart="360" id="veh186" route="rou5" type="CarA"/>
<vehicle depart="360" id="veh187" route="rou5" type="CarA"/>
<vehicle depart="360" id="veh188" route="rou5" type="CarA"/>
<vehicle depart="360" id="veh189" route="rou5" type="CarA"/>
<vehicle depart="360" id="veh190" route="rou5" type="CarA"/>
<vehicle depart="360" id="veh191" route="rou5" type="CarA"/>
<vehicle depart="360" id="veh192" route="rou5" type="CarA"/>
<vehicle depart="360" id="veh193" route="rou5" type="CarA"/>
<vehicle depart="360" id="veh194" route="rou5" type="CarA"/>
<vehicle depart="360" id="veh195" route="rou5" type="CarA"/>
<vehicle depart="360" id="veh196" route="rou5" type="CarA"/>
<vehicle depart="360" id="veh197" route="rou5" type="CarA"/>
<vehicle depart="360" id="veh198" route="rou5" type="CarA"/>
<vehicle depart="360" id="veh199" route="rou5" type="CarA"/>
<vehicle depart="360" id="veh200" route="rou5" type="CarA"/>
<vehicle depart="360" id="veh201" route="rou5" type="CarA"/>
<vehicle depart="360" id="veh202" route="rou5" type="CarA"/>
<vehicle depart="420" id="veh203" route="rou5" type="CarA"/>
<vehicle depart="420" id="veh204" route="rou5" type="CarA"/>
<vehicle depart="420" id="veh205" route="rou5" type="CarA"/>
<vehicle depart="420" id="veh206" route="rou5" type="CarA"/>
<vehicle depart="420" id="veh207" route="rou5" type="CarA"/>
<vehicle depart="420" id="veh208" route="rou5" type="CarA"/>
<vehicle depart="420" id="veh209" route="rou5" type="CarA"/>
<vehicle depart="420" id="veh210" route="rou5" type="CarA"/>
<vehicle depart="420" id="veh211" route="rou5" type="CarA"/>
<vehicle depart="420" id="veh212" route="rou5" type="CarA"/>
<vehicle depart="420" id="veh213" route="rou5" type="CarA"/>
<vehicle depart="420" id="veh214" route="rou5" type="CarA"/>
<vehicle depart="420" id="veh215" route="rou5" type="CarA"/>
<vehicle depart="420" id="veh216" route="rou5" type="CarA"/>
<vehicle depart="420" id="veh217" route="rou5" type="CarA"/>
<vehicle depart="420" id="veh218" route="rou5" type="CarA"/>
<vehicle depart="420" id="veh219" route="rou5" type="CarA"/>
<vehicle depart="420" id="veh220" route="rou5" type="CarA"/>
<vehicle depart="420" id="veh221" route="rou5" type="CarA"/>
<vehicle depart="420" id="veh222" route="rou5" type="CarA"/>
<vehicle depart="420" id="veh223" route="rou5" type="CarA"/>
<vehicle depart="420" id="veh224" route="rou5" type="CarA"/>
<vehicle depart="420" id="veh225" route="rou5" type="CarA"/>
<vehicle depart="420" id="veh226" route="rou5" type="CarA"/>
<vehicle depart="420" id="veh227" route="rou5" type="CarA"/>
<vehicle depart="480" id="veh228" route="rou5" type="CarA"/>
<vehicle depart="480" id="veh229" route="rou5" type="CarA"/>
<vehicle depart="480" id="veh230" route="rou5" type="CarA"/>
<vehicle depart="480" id="veh231" route="rou5" type="CarA"/>
<vehicle depart="480" id="veh232" route="rou5" type="CarA"/>
<vehicle depart="480" id="veh233" route="rou5" type="CarA"/>
<vehicle depart="480" id="veh234" route="rou5" type="CarA"/>
<vehicle depart="480" id="veh235" route="rou5" type="CarA"/>
<vehicle depart="480" id="veh236" route="rou5" type="CarA"/>
<vehicle depart="480" id="veh237" route="rou5" type="CarA"/>
<vehicle depart="480" id="veh238" route="rou5" type="CarA"/>
<vehicle depart="480" id="veh239" route="rou5" type="CarA"/>
<vehicle depart="480" id="veh240" route="rou5" type="CarA"/>
<vehicle depart="480" id="veh241" route="rou5" type="CarA"/>
<vehicle depart="480" id="veh242" route="rou5" type="CarA"/>
<vehicle depart="480" id="veh243" route="rou5" type="CarA"/>
<vehicle depart="480" id="veh244" route="rou5" type="CarA"/>
<vehicle depart="480" id="veh245" route="rou5" type="CarA"/>
<vehicle depart="480" id="veh246" route="rou5" type="CarA"/>
<vehicle depart="480" id="veh247" route="rou5" type="CarA"/>
<vehicle depart="480" id="veh248" route="rou5" type="CarA"/>
<vehicle depart="480" id="veh249" route="rou5" type="CarA"/>
<vehicle depart="480" id="veh250" route="rou5" type="CarA"/>
<vehicle depart="480" id="veh251" route="rou5" type="CarA"/>
<vehicle depart="540" id="veh252" route="rou5" type="CarA"/>
<vehicle depart="540" id="veh253" route="rou5" type="CarA"/>
<vehicle depart="540" id="veh254" route="rou5" type="CarA"/>
<vehicle depart="540" id="veh255" route="rou5" type="CarA"/>
<vehicle depart="540" id="veh256" route="rou5" type="CarA"/>
<vehicle depart="540" id="veh257" route="rou5" type="CarA"/>
<vehicle depart="540" id="veh258" route="rou5" type="CarA"/>
<vehicle depart="540" id="veh259" route="rou5" type="CarA"/>
<vehicle depart="540" id="veh260" route="rou5" type="CarA"/>
<vehicle depart="540" id="veh261" route="rou5" type="CarA"/>
<vehicle depart="540" id="veh262" route="rou5" type="CarA"/>
<vehicle depart="540" id="veh263" route="rou5" type="CarA"/>
<vehicle depart="540" id="veh264" route="rou5" type="CarA"/>
<vehicle depart="540" id="veh265" route="rou5" type="CarA"/>
<vehicle depart="540" id="veh266" route="rou5" type="CarA"/>
<vehicle depart="540" id="veh267" route="rou5" type="CarA"/>
<vehicle depart="540" id="veh268" route="rou5" type="CarA"/>
<vehicle depart="540" id="veh269" route="rou5" type="CarA"/>
<vehicle depart="540" id="veh270" route="rou5" type="CarA"/>
<vehicle depart="540" id="veh271" route="rou5" type="CarA"/>
<vehicle depart="540" id="veh272" route="rou5" type="CarA"/>
<vehicle depart="540" id="veh273" route="rou5" type="CarA"/>
<vehicle depart="540" id="veh274" route="rou5" type="CarA"/>
<vehicle depart="600" id="veh275" route="rou5" type="CarA"/>
<vehicle depart="600" id="veh276" route="rou5" type="CarA"/>
<vehicle depart="600" id="veh277" route="rou5" type="CarA"/>
<vehicle depart="600" id="veh278" route="rou5" type="CarA"/>
<vehicle depart="600" id="veh279" route="rou5" type="CarA"/>
<vehicle depart="600" id="veh280" route="rou5" type="CarA"/>
<vehicle depart="600" id="veh281" route="rou5" type="CarA"/>
<vehicle depart="600" id="veh282" route="rou5" type="CarA"/>
<vehicle depart="600" id="veh283" route="rou5" type="CarA"/>
<vehicle depart="600" id="veh284" route="rou5" type="CarA"/>
<vehicle depart="600" id="veh285" route="rou5" type="CarA"/>
<vehicle depart="600" id="veh286" route="rou5" type="CarA"/>
<vehicle depart="600" id="veh287" route="rou5" type="CarA"/>
<vehicle depart="600" id="veh288" route="rou5" type="CarA"/>
<vehicle depart="600" id="veh289" route="rou5" type="CarA"/>
<vehicle depart="600" id="veh290" route="rou5" type="CarA"/>
<vehicle depart="600" id="veh291" route="rou5" type="CarA"/>
<vehicle depart="600" id="veh292" route="rou5" type="CarA"/>
<vehicle depart="600" id="veh293" route="rou5" type="CarA"/>
<vehicle depart="600" id="veh294" route="rou5" type="CarA"/>
<vehicle depart="600" id="veh295" route="rou5" type="CarA"/>
<vehicle depart="600" id="veh296" route="rou5" type="CarA"/>
<vehicle depart="660" id="veh297" route="rou5" type="CarA"/>
<vehicle depart="660" id="veh298" route="rou5" type="CarA"/>
<vehicle depart="660" id="veh299" route="rou5" type="CarA"/>
<vehicle depart="660" id="veh300" route="rou5" type="CarA"/>
<vehicle depart="660" id="veh301" route="rou5" type="CarA"/>
<vehicle depart="660" id="veh302" route="rou5" type="CarA"/>
<vehicle depart="660" id="veh303" route="rou5" type="CarA"/>
<vehicle depart="660" id="veh304" route="rou5" type="CarA"/>
<vehicle depart="660" id="veh305" route="rou5" type="CarA"/>
<vehicle depart="660" id="veh306" route="rou5" type="CarA"/>
<vehicle depart="660" id="veh307" route="rou5" type="CarA"/>
<vehicle depart="660" id="veh308" route="rou5" type="CarA"/>
<vehicle depart="660" id="veh309" route="rou5" type="CarA"/>
<vehicle depart="660" id="veh310" route="rou5" type="CarA"/>
<vehicle depart="660" id="veh311" route="rou5" type="CarA"/>
<vehicle depart="660" id="veh312" route="rou5" type="CarA"/>
<vehicle depart="660" id="veh313" route="rou5" type="CarA"/>
<vehicle depart="660" id="veh314" route="rou5" type="CarA"/>
<vehicle depart="660" id="veh315" route="rou5" type="CarA"/>
<vehicle depart="660" id="veh316" route="rou5" type="CarA"/>
<vehicle depart="660" id="veh317" route="rou5" type="CarA"/>
<vehicle depart="720" id="veh318" route="rou5" type="CarA"/>
<vehicle depart="720" id="veh319" route="rou5" type="CarA"/>
<vehicle depart="720" id="veh320" route="rou5" type="CarA"/>
<vehicle depart="720" id="veh321" route="rou5" type="CarA"/>
<vehicle depart="720" id="veh322" route="rou5" type="CarA"/>
<vehicle depart="720" id="veh323" route="rou5" type="CarA"/>
<vehicle depart="720" id="veh324" route="rou5" type="CarA"/>
<vehicle depart="720" id="veh325" route="rou5" type="CarA"/>
<vehicle depart="720" id="veh326" route="rou5" type="CarA"/>
<vehicle depart="720" id="veh327" route="rou5" type="CarA"/>
<vehicle depart="720" id="veh328" route="rou5" type="CarA"/>
<vehicle depart="720" id="veh329" route="rou5" type="CarA"/>
<vehicle depart="720" id="veh330" route="rou5" type="CarA"/>
<vehicle depart="720" id="veh331" route="rou5" type="CarA"/>
<vehicle depart="720" id="veh332" route="rou5" type="CarA"/>
<vehicle depart="720" id="veh333" route="rou5" type="CarA"/>
<vehicle depart="720" id="veh334" route="rou5" type="CarA"/>
<vehicle depart="720" id="veh335" route="rou5" type="CarA"/>
<vehicle depart="720" id="veh336" route="rou5" type="CarA"/>
<vehicle depart="720" id="veh337" route="rou5" type="CarA"/>
<vehicle depart="780" id="veh338" route="rou5" type="CarA"/>
<vehicle depart="780" id="veh339" route="rou5" type="CarA"/>
<vehicle depart="780" id="veh340" route="rou5" type="CarA"/>
<vehicle depart="780" id="veh341" route="rou5" type="CarA"/>
<vehicle depart="780" id="veh342" route="rou5" type="CarA"/>
<vehicle depart="780" id="veh343" route="rou5" type="CarA"/>
<vehicle depart="780" id="veh344" route="rou5" type="CarA"/>
<vehicle depart="780" id="veh345" route="rou5" type="CarA"/>
<vehicle depart="780" id="veh346" route="rou5" type="CarA"/>
<vehicle depart="780" id="veh347" route="rou5" type="CarA"/>
<vehicle depart="780" id="veh348" route="rou5" type="CarA"/>
<vehicle depart="780" id="veh349" route="rou5" type="CarA"/>
<vehicle depart="780" id="veh350" route="rou5" type="CarA"/>
<vehicle depart="780" id="veh351" route="rou5" type="CarA"/>
<vehicle depart="780" id="veh352" route="rou5" type="CarA"/>
<vehicle depart="780" id="veh353" route="rou5" type="CarA"/>
<vehicle depart="780" id="veh354" route="rou5" type="CarA"/>
<vehicle depart="780" id="veh355" route="rou5" type="CarA"/>
<vehicle depart="780" id="veh356" route="rou5" type="CarA"/>
<vehicle depart="840" id="veh357" route="rou5" type="CarA"/>
<vehicle depart="840" id="veh358" route="rou5" type="CarA"/>
<vehicle depart="840" id="veh359" route="rou5" type="CarA"/>
<vehicle depart="840" id="veh360" route="rou5" type="CarA"/>
<vehicle depart="840" id="veh361" route="rou5" type="CarA"/>
<vehicle depart="840" id="veh362" route="rou5" type="CarA"/>
<vehicle depart="840" id="veh363" route="rou5" type="CarA"/>
<vehicle depart="840" id="veh364" route="rou5" type="CarA"/>
<vehicle depart="840" id="veh365" route="rou5" type="CarA"/>
<vehicle depart="840" id="veh366" route="rou5" type="CarA"/>
<vehicle depart="840" id="veh367" route="rou5" type="CarA"/>
<vehicle depart="840" id="veh368" route="rou5" type="CarA"/>
<vehicle depart="840" id="veh369" route="rou5" type="CarA"/>
<vehicle depart="840" id="veh370" route="rou5" type="CarA"/>
<vehicle depart="840" id="veh371" route="rou5" type="CarA"/>
<vehicle depart="840" id="veh372" route="rou5" type="CarA"/>
<vehicle depart="840" id="veh373" route="rou5" type="CarA"/>
<vehicle depart="840" id="veh374" route="rou5" type="CarA"/>
<vehicle depart="900" id="veh375" route="rou5" type="CarA"/>
<vehicle depart="900" id="veh376" route="rou5" type="CarA"/>
<vehicle depart="900" id="veh377" route="rou5" type="CarA"/>
<vehicle depart="900" id="veh378" route="rou5" type="CarA"/>
<vehicle depart="900" id="veh379" route="rou5" type="CarA"/>
<vehicle depart="900" id="veh380" route="rou5" type="CarA"/>
<vehicle depart="900" id="veh381" route="rou5" type="CarA"/>
<vehicle depart="900" id="veh382" route="rou5" type="CarA"/>
<vehicle depart="900" id="veh383" route="rou5" type="CarA"/>
<vehicle depart="900" id="veh384" route="rou5" type="CarA"/>
<vehicle depart="900" id="veh385" route="rou5" type="CarA"/>
<vehicle depart="900" id="veh386" route="rou5" type="CarA"/>
<vehicle depart="900" id="veh387" route="rou5" type="CarA"/>
<vehicle depart="900" id="veh388" route="rou5" type="CarA"/>
<vehicle depart="900" id="veh389" route="rou5" type="CarA"/>
<vehicle depart="900" id="veh390" route="rou5" type="CarA"/>
<vehicle depart="900" id="veh391" route="rou5" type="CarA"/>
<vehicle depart="960" id="veh392" route="rou5" type="CarA"/>
<vehicle depart="960" id="veh393" route="rou5" type="CarA"/>
<vehicle depart="960" id="veh394" route="rou5" type="CarA"/>
<vehicle depart="960" id="veh395" route="rou5" type="CarA"/>
<vehicle depart="960" id="veh396" route="rou5" type="CarA"/>
<vehicle depart="960" id="veh397" route="rou5" type="CarA"/>
<vehicle depart="960" id="veh398" route="rou5" type="CarA"/>
<vehicle depart="960" id="veh399" route="rou5" type="CarA"/>
<vehicle depart="960" id="veh400" route="rou5" type="CarA"/>
<vehicle depart="960" id="veh401" route="rou5" type="CarA"/>
<vehicle depart="960" id="veh402" route="rou5" type="CarA"/>
<vehicle depart="960" id="veh403" route="rou5" type="CarA"/>
<vehicle depart="960" id="veh404" route="rou5" type="CarA"/>
<vehicle depart="960" id="veh405" route="rou5" type="CarA"/>
<vehicle depart="960" id="veh406" route="rou5" type="CarA"/>
<vehicle depart="1020" id="veh407" route="rou5" type="CarA"/>
<vehicle depart="1020" id="veh408" route="rou5" type="CarA"/>
<vehicle depart="1020" id="veh409" route="rou5" type="CarA"/>
<vehicle depart="1020" id="veh410" route="rou5" type="CarA"/>
<vehicle depart="1020" id="veh411" route="rou5" type="CarA"/>
<vehicle depart="1020" id="veh412" route="rou5" type="CarA"/>
<vehicle depart="1020" id="veh413" route="rou5" type="CarA"/>
<vehicle depart="1020" id="veh414" route="rou5" type="CarA"/>
<vehicle depart="1020" id="veh415" route="rou5" type="CarA"/>
<vehicle depart="1020" id="veh416" route="rou5" type="CarA"/>
<vehicle depart="1020" id="veh417" route="rou5" type="CarA"/>
<vehicle depart="1020" id="veh418" route="rou5" type="CarA"/>
<vehicle depart="1020" id="veh419" route="rou5" type="CarA"/>
<vehicle depart="1020" id="veh420" route="rou5" type="CarA"/>
<vehicle depart="1080" id="veh421" route="rou5" type="CarA"/>
<vehicle depart="1080" id="veh422" route="rou5" type="CarA"/>
<vehicle depart="1080" id="veh423" route="rou5" type="CarA"/>
<vehicle depart="1080" id="veh424" route="rou5" type="CarA"/>
<vehicle depart="1080" id="veh425" route="rou5" type="CarA"/>
<vehicle depart="1080" id="veh426" route="rou5" type="CarA"/>
<vehicle depart="1080" id="veh427" route="rou5" type="CarA"/>
<vehicle depart="1080" id="veh428" route="rou5" type="CarA"/>
<vehicle depart="1080" id="veh429" route="rou5" type="CarA"/>
<vehicle depart="1080" id="veh430" route="rou5" type="CarA"/>
<vehicle depart="1080" id="veh431" route="rou5" type="CarA"/>
<vehicle depart="1080" id="veh432" route="rou5" type="CarA"/>
<vehicle depart="1080" id="veh433" route="rou5" type="CarA"/>
<vehicle depart="1140" id="veh434" route="rou5" type="CarA"/>
<vehicle depart="1140" id="veh435" route="rou5" type="CarA"/>
<vehicle depart="1140" id="veh436" route="rou5" type="CarA"/>
<vehicle depart="1140" id="veh437" route="rou5" type="CarA"/>
<vehicle depart="1140" id="veh438" route="rou5" type="CarA"/>
<vehicle depart="1140" id="veh439" route="rou5" type="CarA"/>
<vehicle depart="1140" id="veh440" route="rou5" type="CarA"/>
<vehicle depart="1140" id="veh441" route="rou5" type="CarA"/>
<vehicle depart="1140" id="veh442" route="rou5" type="CarA"/>
<vehicle depart="1140" id="veh443" route="rou5" type="CarA"/>
<vehicle depart="1140" id="veh444" route="rou5" type="CarA"/>
<vehicle depart="1140" id="veh445" route="rou5" type="CarA"/>
<vehicle depart="1200" id="veh446" route="rou5" type="CarA"/>
<vehicle depart="1200" id="veh447" route="rou5" type="CarA"/>
<vehicle depart="1200" id="veh448" route="rou5" type="CarA"/>
<vehicle depart="1200" id="veh449" route="rou5" type="CarA"/>
<vehicle depart="1200" id="veh450" route="rou5" type="CarA"/>
<vehicle depart="1200" id="veh451" route="rou5" type="CarA"/>
<vehicle depart="1200" id="veh452" route="rou5" type="CarA"/>
<vehicle depart="1200" id="veh453" route="rou5" type="CarA"/>
<vehicle depart="1200" id="veh454" route="rou5" type="CarA"/>
<vehicle depart="1200" id="veh455" route="rou5" type="CarA"/>
<vehicle depart="1200" id="veh456" route="rou5" type="CarA"/>
<vehicle depart="1260" id="veh457" route="rou5" type="CarA"/>
<vehicle depart="1260" id="veh458" route="rou5" type="CarA"/>
<vehicle depart="1260" id="veh459" route="rou5" type="CarA"/>
<vehicle depart="1260" id="veh460" route="rou5" type="CarA"/>
<vehicle depart="1260" id="veh461" route="rou5" type="CarA"/>
<vehicle depart="1260" id="veh462" route="rou5" type="CarA"/>
<vehicle depart="1260" id="veh463" route="rou5" type="CarA"/>
<vehicle depart="1260" id="veh464" route="rou5" type="CarA"/>
<vehicle depart="1260" id="veh465" route="rou5" type="CarA"/>
<vehicle depart="1260" id="veh466" route="rou5" type="CarA"/>
<vehicle depart="1320" id="veh467" route="rou5" type="CarA"/>
<vehicle depart="1320" id="veh468" route="rou5" type="CarA"/>
<vehicle depart="1320" id="veh469" route="rou5" type="CarA"/>
<vehicle depart="1320" id="veh470" route="rou5" type="CarA"/>
<vehicle depart="1320" id="veh471" route="rou5" type="CarA"/>
<vehicle depart="1320" id="veh472" route="rou5" type="CarA"/>
<vehicle depart="1320" id="veh473" route="rou5" type="CarA"/>
<vehicle depart="1320" id="veh474" route="rou5" type="CarA"/>
<vehicle depart="1320" id="veh475" route="rou5" type="CarA"/>
<vehicle depart="1380" id="veh476" route="rou5" type="CarA"/>