<?xml version="1.0" encoding="UTF-8"?>
<configuration xmlns:xsi="http://www.w3.org/2001/XMLSchema-instance" xsi:noNamespaceSchemaLocation="http://sumo.dlr.de/xsd/sumoConfiguration.xsd">
    <input>
        <net-file value="romaBasic.net.xml"/>
        <route-files value="romaBasic.rou.xml"/>
        <gui-settings-file value="romaBasic.settings.xml"/>
    </input>
    <time>
        <begin value="0"/>
        <end value="3600"/>
    </time>
    <report>
    	<verbose value="true"/>
    	<log value="log.gui"/>
    </report>
    <traci_server>
        <remote-port value="8820"/>
    </traci_server>
    <gui_only>
    	<start value="true"/>   
    </gui_only>
</configuration>