<?xml version="1.0" encoding="UTF-8"?>

<!-- generated on 31/03/2016 03:54:31 p.m. by Netedit Version 0.25.0
<?xml version="1.0" encoding="UTF-8"?>

<configuration xmlns:xsi="http://www.w3.org/2001/XMLSchema-instance" xsi:noNamespaceSchemaLocation="http://sumo.dlr.de/xsd/netedit.exeConfiguration.xsd">

    <input>
        <sumo-net-file value="C:\Users\famezcua\git\roma\romaSimulations\data\romaBasic.net.xml"/>
    </input>

    <output>
        <output-file value="C:\Users\famezcua\git\roma\romaSimulations\data\romaBasic.net.xml"/>
    </output>

    <processing>
        <no-turnarounds value="true"/>
        <offset.disable-normalization value="true"/>
        <lefthand value="false"/>
        <junctions.corner-detail value="0"/>
    </processing>

</configuration>
-->

<net version="0.25" xmlns:xsi="http://www.w3.org/2001/XMLSchema-instance" xsi:noNamespaceSchemaLocation="http://sumo.dlr.de/xsd/net_file.xsd">

    <location netOffset="0.00,0.00" convBoundary="-131.64,-34.24,79.45,141.56" origBoundary="-10000000000.00,-10000000000.00,10000000000.00,10000000000.00" projParameter="!"/>

    <edge id=":N5_0" function="internal">
        <lane id=":N5_0_0" index="0" speed="13.89" length="5.03" shape="-29.40,65.08 -29.59,63.71 -30.18,62.74 -31.15,62.16 -32.52,61.96"/>
    </edge>
    <edge id=":N5_1" function="internal">
        <lane id=":N5_1_0" index="0" speed="13.89" length="16.12" shape="-26.10,65.08 -26.10,60.29 -26.10,57.02 -26.10,53.74 -26.10,48.96"/>
    </edge>
    <edge id=":N5_2" function="internal">
        <lane id=":N5_2_0" index="0" speed="13.89" length="6.41" shape="-26.10,65.08 -25.49,60.83 -24.40,59.01"/>
    </edge>
    <edge id=":N5_14" function="internal">
        <lane id=":N5_14_0" index="0" speed="13.89" length="9.24" shape="-24.40,59.01 -23.67,57.80 -20.64,55.98 -16.39,55.38"/>
    </edge>
    <edge id=":N5_3" function="internal">
        <lane id=":N5_3_0" index="0" speed="13.89" length="5.00" shape="-16.40,61.98 -17.76,62.17 -18.72,62.75 -19.31,63.72 -19.50,65.08"/>
    </edge>
    <edge id=":N5_4" function="internal">
        <lane id=":N5_4_0" index="0" speed="13.89" length="16.12" shape="-16.40,61.98 -21.18,61.97 -24.46,61.97 -27.73,61.97 -32.52,61.96"/>
        <lane id=":N5_4_1" index="1" speed="13.89" length="16.12" shape="-16.40,58.68 -21.18,58.67 -24.45,58.67 -27.73,58.67 -32.51,58.66"/>
    </edge>
    <edge id=":N5_6" function="internal">
        <lane id=":N5_6_0" index="0" speed="13.89" length="6.42" shape="-16.40,58.68 -20.64,58.07 -22.46,56.97"/>
    </edge>
    <edge id=":N5_15" function="internal">
        <lane id=":N5_15_0" index="0" speed="13.89" length="9.24" shape="-22.46,56.97 -23.67,56.24 -25.49,53.21 -26.10,48.96"/>
    </edge>
    <edge id=":N5_7" function="internal">
        <lane id=":N5_7_0" index="0" speed="13.89" length="5.02" shape="-19.50,48.96 -19.31,50.32 -18.72,51.30 -17.75,51.88 -16.39,52.08"/>
    </edge>
    <edge id=":N5_8" function="internal">
        <lane id=":N5_8_0" index="0" speed="13.89" length="16.12" shape="-22.80,48.96 -22.80,53.74 -22.80,57.02 -22.80,60.29 -22.80,65.08"/>
    </edge>
    <edge id=":N5_9" function="internal">
        <lane id=":N5_9_0" index="0" speed="13.89" length="6.41" shape="-22.80,48.96 -23.41,53.21 -24.50,55.03"/>
    </edge>
    <edge id=":N5_16" function="internal">
        <lane id=":N5_16_0" index="0" speed="13.89" length="9.24" shape="-24.50,55.03 -25.23,56.24 -28.26,58.06 -32.51,58.66"/>
    </edge>
    <edge id=":N5_10" function="internal">
        <lane id=":N5_10_0" index="0" speed="13.89" length="5.00" shape="-32.50,52.06 -31.15,51.87 -30.18,51.29 -29.60,50.32 -29.40,48.96"/>
    </edge>
    <edge id=":N5_11" function="internal">
        <lane id=":N5_11_0" index="0" speed="13.89" length="16.12" shape="-32.50,52.06 -27.72,52.07 -24.45,52.07 -21.17,52.07 -16.39,52.08"/>
        <lane id=":N5_11_1" index="1" speed="13.89" length="16.12" shape="-32.51,55.36 -27.72,55.37 -24.45,55.37 -21.18,55.37 -16.39,55.38"/>
    </edge>
    <edge id=":N5_13" function="internal">
        <lane id=":N5_13_0" index="0" speed="13.89" length="6.42" shape="-32.51,55.36 -28.26,55.97 -26.44,57.07"/>
    </edge>
    <edge id=":N5_17" function="internal">
        <lane id=":N5_17_0" index="0" speed="13.89" length="9.24" shape="-26.44,57.07 -25.23,57.79 -23.41,60.83 -22.80,65.08"/>
    </edge>

    <edge id="E1" from="N1" to="N5" priority="1">
        <lane id="E1_0" index="0" speed="13.89" length="76.48" shape="-29.40,141.56 -29.40,65.08"/>
        <lane id="E1_1" index="1" speed="13.89" length="76.48" shape="-26.10,141.56 -26.10,65.08"/>
    </edge>
    <edge id="E2" from="N5" to="N1" priority="1">
        <lane id="E2_0" index="0" speed="13.89" length="76.48" shape="-19.50,65.08 -19.50,141.56"/>
        <lane id="E2_1" index="1" speed="13.89" length="76.48" shape="-22.80,65.08 -22.80,141.56"/>
    </edge>
    <edge id="E3" from="N2" to="N5" priority="1">
        <lane id="E3_0" index="0" speed="13.89" length="95.84" shape="79.44,62.07 -16.40,61.98"/>
        <lane id="E3_1" index="1" speed="13.89" length="95.84" shape="79.45,58.77 -16.40,58.68"/>
    </edge>
    <edge id="E4" from="N5" to="N2" priority="1">
        <lane id="E4_0" index="0" speed="13.89" length="95.84" shape="-16.39,52.08 79.45,52.17"/>
        <lane id="E4_1" index="1" speed="13.89" length="95.84" shape="-16.39,55.38 79.45,55.47"/>
    </edge>
    <edge id="E5" from="N3" to="N5" priority="1">
        <lane id="E5_0" index="0" speed="13.89" length="83.20" shape="-19.52,-34.24 -19.50,48.96"/>
        <lane id="E5_1" index="1" speed="13.89" length="83.20" shape="-22.82,-34.24 -22.80,48.96"/>
    </edge>
    <edge id="E6" from="N5" to="N3" priority="1">
        <lane id="E6_0" index="0" speed="13.89" length="83.20" shape="-29.40,48.96 -29.42,-34.24"/>
        <lane id="E6_1" index="1" speed="13.89" length="83.20" shape="-26.10,48.96 -26.12,-34.24"/>
    </edge>
    <edge id="E7" from="N4" to="N5" priority="1">
        <lane id="E7_0" index="0" speed="13.89" length="99.13" shape="-131.63,51.92 -32.50,52.06"/>
        <lane id="E7_1" index="1" speed="13.89" length="99.13" shape="-131.63,55.22 -32.51,55.36"/>
    </edge>
    <edge id="E8" from="N5" to="N4" priority="1">
        <lane id="E8_0" index="0" speed="13.89" length="99.13" shape="-32.52,61.96 -131.64,61.82"/>
        <lane id="E8_1" index="1" speed="13.89" length="99.13" shape="-32.51,58.66 -131.64,58.52"/>
    </edge>

    <tlLogic id="N5" type="static" programID="0" offset="0">
        <phase duration="31" state="rrrGGGgrrrGGGg"/>
        <phase duration="4" state="rrryyygrrryyyg"/>
        <phase duration="6" state="rrrrrrGrrrrrrG"/>
        <phase duration="4" state="rrrrrryrrrrrry"/>
        <phase duration="31" state="GGgrrrrGGgrrrr"/>
        <phase duration="4" state="yygrrrryygrrrr"/>
        <phase duration="6" state="rrGrrrrrrGrrrr"/>
        <phase duration="4" state="rryrrrrrryrrrr"/>
    </tlLogic>

    <junction id="N1" type="dead_end" x="-24.45" y="141.56" incLanes="E2_0 E2_1" intLanes="" shape="-24.50,141.56 -31.00,141.56 -17.90,141.56 -24.40,141.56"/>
    <junction id="N2" type="dead_end" x="79.45" y="57.12" incLanes="E4_0 E4_1" intLanes="" shape="79.45,57.17 79.44,63.67 79.45,50.57 79.45,57.07"/>
    <junction id="N3" type="dead_end" x="-24.47" y="-34.24" incLanes="E6_0 E6_1" intLanes="" shape="-24.42,-34.24 -17.92,-34.24 -31.02,-34.24 -24.52,-34.24"/>
    <junction id="N4" type="dead_end" x="-131.64" y="56.87" incLanes="E8_0 E8_1" intLanes="" shape="-131.64,56.82 -131.63,50.32 -131.65,63.42 -131.64,56.92"/>
    <junction id="N5" type="traffic_light" x="-24.45" y="57.02" incLanes="E1_0 E1_1 E3_0 E3_1 E5_0 E5_1 E7_0 E7_1" intLanes=":N5_0_0 :N5_1_0 :N5_14_0 :N5_3_0 :N5_4_0 :N5_4_1 :N5_15_0 :N5_7_0 :N5_8_0 :N5_16_0 :N5_10_0 :N5_11_0 :N5_11_1 :N5_17_0" shape="-31.00,65.08 -17.90,65.08 -16.40,63.58 -16.39,50.48 -17.90,48.96 -31.00,48.96 -32.50,50.46 -32.52,63.56">
        <request index="0" response="00000000000000" foes="00001000110000" cont="0"/>
        <request index="1" response="00000000000000" foes="11111001110000" cont="0"/>
        <request index="2" response="00000110000000" foes="11100111110000" cont="1"/>
        <request index="3" response="00000100000000" foes="10000100000000" cont="0"/>
        <request index="4" response="00001100000111" foes="10001100000111" cont="0"/>
        <request index="5" response="00001100000111" foes="10001100000111" cont="0"/>
        <request index="6" response="01111100000110" foes="01111100000110" cont="1"/>
        <request index="7" response="00000000000000" foes="01100000000100" cont="0"/>
        <request index="8" response="00000000000000" foes="11100001111100" cont="0"/>
        <request index="9" response="00000000000011" foes="11100001110011" cont="1"/>
        <request index="10" response="00000000000010" foes="00000001000010" cont="0"/>
        <request index="11" response="00001110000110" foes="00001111000110" cont="0"/>
        <request index="12" response="00001110000110" foes="00001111000110" cont="0"/>
        <request index="13" response="00001100111110" foes="00001100111110" cont="1"/>
    </junction>

    <junction id=":N5_14_0" type="internal" x="-24.40" y="59.01" incLanes=":N5_2_0 E5_0 E5_1" intLanes=":N5_4_0 :N5_4_1 :N5_6_0 :N5_7_0 :N5_8_0 :N5_11_0 :N5_11_1 :N5_13_0"/>
    <junction id=":N5_15_0" type="internal" x="-22.46" y="56.97" incLanes=":N5_6_0 E7_0 E7_1" intLanes=":N5_1_0 :N5_2_0 :N5_8_0 :N5_9_0 :N5_10_0 :N5_11_0 :N5_11_1"/>
    <junction id=":N5_16_0" type="internal" x="-24.50" y="55.03" incLanes=":N5_9_0 E1_0 E1_1" intLanes=":N5_0_0 :N5_1_0 :N5_4_0 :N5_4_1 :N5_6_0 :N5_11_0 :N5_11_1 :N5_13_0"/>
    <junction id=":N5_17_0" type="internal" x="-26.44" y="57.07" incLanes=":N5_13_0 E3_0 E3_1" intLanes=":N5_1_0 :N5_2_0 :N5_3_0 :N5_4_0 :N5_4_1 :N5_8_0 :N5_9_0"/>

    <connection from="E1" to="E8" fromLane="0" toLane="0" via=":N5_0_0" tl="N5" linkIndex="0" dir="r" state="o"/>
    <connection from="E1" to="E6" fromLane="1" toLane="1" via=":N5_1_0" tl="N5" linkIndex="1" dir="s" state="o"/>
    <connection from="E1" to="E4" fromLane="1" toLane="1" via=":N5_2_0" tl="N5" linkIndex="2" dir="l" state="o"/>
    <connection from="E3" to="E2" fromLane="0" toLane="0" via=":N5_3_0" tl="N5" linkIndex="3" dir="r" state="o"/>
    <connection from="E3" to="E8" fromLane="0" toLane="0" via=":N5_4_0" tl="N5" linkIndex="4" dir="s" state="o"/>
    <connection from="E3" to="E8" fromLane="1" toLane="1" via=":N5_4_1" tl="N5" linkIndex="5" dir="s" state="o"/>
    <connection from="E3" to="E6" fromLane="1" toLane="1" via=":N5_6_0" tl="N5" linkIndex="6" dir="l" state="o"/>
    <connection from="E5" to="E4" fromLane="0" toLane="0" via=":N5_7_0" tl="N5" linkIndex="7" dir="r" state="o"/>
    <connection from="E5" to="E2" fromLane="1" toLane="1" via=":N5_8_0" tl="N5" linkIndex="8" dir="s" state="o"/>
    <connection from="E5" to="E8" fromLane="1" toLane="1" via=":N5_9_0" tl="N5" linkIndex="9" dir="l" state="o"/>
    <connection from="E7" to="E6" fromLane="0" toLane="0" via=":N5_10_0" tl="N5" linkIndex="10" dir="r" state="o"/>
    <connection from="E7" to="E4" fromLane="0" toLane="0" via=":N5_11_0" tl="N5" linkIndex="11" dir="s" state="o"/>
    <connection from="E7" to="E4" fromLane="1" toLane="1" via=":N5_11_1" tl="N5" linkIndex="12" dir="s" state="o"/>
    <connection from="E7" to="E2" fromLane="1" toLane="1" via=":N5_13_0" tl="N5" linkIndex="13" dir="l" state="o"/>

    <connection from=":N5_0" to="E8" fromLane="0" toLane="0" dir="s" state="M"/>
    <connection from=":N5_1" to="E6" fromLane="0" toLane="1" dir="s" state="M"/>
    <connection from=":N5_2" to="E4" fromLane="0" toLane="1" via=":N5_14_0" dir="s" state="m"/>
    <connection from=":N5_14" to="E4" fromLane="0" toLane="1" dir="s" state="M"/>
    <connection from=":N5_3" to="E2" fromLane="0" toLane="0" dir="s" state="M"/>
    <connection from=":N5_4" to="E8" fromLane="0" toLane="0" dir="s" state="M"/>
    <connection from=":N5_4" to="E8" fromLane="1" toLane="1" dir="s" state="M"/>
    <connection from=":N5_6" to="E6" fromLane="0" toLane="1" via=":N5_15_0" dir="s" state="m"/>
    <connection from=":N5_15" to="E6" fromLane="0" toLane="1" dir="s" state="M"/>
    <connection from=":N5_7" to="E4" fromLane="0" toLane="0" dir="s" state="M"/>
    <connection from=":N5_8" to="E2" fromLane="0" toLane="1" dir="s" state="M"/>
    <connection from=":N5_9" to="E8" fromLane="0" toLane="1" via=":N5_16_0" dir="s" state="m"/>
    <connection from=":N5_16" to="E8" fromLane="0" toLane="1" dir="s" state="M"/>
    <connection from=":N5_10" to="E6" fromLane="0" toLane="0" dir="s" state="M"/>
    <connection from=":N5_11" to="E4" fromLane="0" toLane="0" dir="s" state="M"/>
    <connection from=":N5_11" to="E4" fromLane="1" toLane="1" dir="s" state="M"/>
    <connection from=":N5_13" to="E2" fromLane="0" toLane="1" via=":N5_17_0" dir="s" state="m"/>
    <connection from=":N5_17" to="E2" fromLane="0" toLane="1" dir="s" state="M"/>

</net>
